--------------------------------------------------------------------------------
 Model Input Parameters:  ROMS/TOMS version 3.7  
                          Wednesday - August 7, 2019 - 11:49:34 AM
 --------------------------------------------------------------------------------

 Offline oil

 Operating system : Linux
 CPU/hardware     : x86_64
 Compiler system  : ifort
 Compiler command : /sw/eb/sw/impi/2018.3.222-iccifort-2018.3.222-GCC-7.3.0-2.30/bin64/mpiifort
 Compiler flags   : -fp-model fast -heap-arrays -g -check uninit -traceback -free -free

 Input Script  : 

 SVN Root URL  : https:://myroms.org/svn/src
 SVN Revision  : Unversioned directory

 Local Root    : /scratch/user/vrx/CSOMIO/COAWST-ROMS-OIL
 Header Dir    : /scratch/user/vrx/CSOMIO/oil_off
 Header file   : oil_offline.h
 Analytical Dir: /scratch/user/vrx/CSOMIO/oil_off/Functionals

 Resolution, Grid 01: 0250x0126x050,  Parallel Nodes: 140,  Tiling: 010x014


 Physical Parameters, Grid: 01
 =============================

      28800  ntimes            Number of timesteps for 3-D equations.
     20.000  dt                Timestep size (s) for 3-D equations.
         15  ndtfast           Number of timesteps for 2-D equations between
                                 each 3D timestep.
          1  ERstr             Starting ensemble/perturbation run number.
          1  ERend             Ending ensemble/perturbation run number.
          0  nrrec             Number of restart records to read from disk.
          T  LcycleRST         Switch to recycle time-records in restart file.
      28800  nRST              Number of timesteps between the writing of data
                                 into restart fields.
          1  ninfo             Number of timesteps between print of information
                                 to standard output.
          T  ldefout           Switch to create a new output NetCDF file(s).
          1  nHIS              Number of timesteps between the writing fields
                                 into history file.
       8640  ndefHIS           Number of timesteps between creation of new
                                 history files.
          0  nQCK              Number of timesteps between the writing fields
                                 into quicksave file.
 5.0000E+00  nl_visc2          NLM Horizontal, harmonic mixing coefficient
                                 (m2/s) for momentum.
          F  LuvSponge         Turning OFF sponge on horizontal momentum.
          F  LtracerSponge(01) Turning OFF sponge on tracer 01: temp
          F  LtracerSponge(02) Turning OFF sponge on tracer 02: salt
 1.0000E-06  Akt_bak(01)       Background vertical mixing coefficient (m2/s)
                                 for tracer 01: temp
 1.0000E-06  Akt_bak(02)       Background vertical mixing coefficient (m2/s)
                                 for tracer 02: salt
 1.0000E-05  Akv_bak           Background vertical mixing coefficient (m2/s)
                                 for momentum.
 5.0000E-06  Akk_bak           Background vertical mixing coefficient (m2/s)
                                 for turbulent energy.
 5.0000E-06  Akp_bak           Background vertical mixing coefficient (m2/s)
                                 for turbulent generic statistical field.
      3.000  gls_p             GLS stability exponent.
      1.500  gls_m             GLS turbulent kinetic energy exponent.
     -1.000  gls_n             GLS turbulent length scale exponent.
 7.6000E-06  gls_Kmin          GLS minimum value of turbulent kinetic energy.
 1.0000E-12  gls_Pmin          GLS minimum value of dissipation.
 5.4770E-01  gls_cmu0          GLS stability coefficient.
 1.4400E+00  gls_c1            GLS shear production coefficient.
 1.9200E+00  gls_c2            GLS dissipation coefficient.
-4.0000E-01  gls_c3m           GLS stable buoyancy production coefficient.
 1.0000E+00  gls_c3p           GLS unstable buoyancy production coefficient.
 1.0000E+00  gls_sigk          GLS constant Schmidt number for TKE.
 1.3000E+00  gls_sigp          GLS constant Schmidt number for PSI.
   1400.000  charnok_alpha     Charnok factor for Zos calculation.
      0.500  zos_hsig_alpha    Factor for Zos calculation using Hsig(Awave).
      0.250  sz_alpha          Factor for Wave dissipation surface tke flux .
    100.000  crgban_cw         Factor for Craig/Banner surface tke flux.
      0.000  wec_alpha         WEC factor for roller/breaking energy distribution.
 3.0000E-04  rdrg              Linear bottom drag coefficient (m/s).
 2.5000E-02  rdrg2             Quadratic bottom drag coefficient.
 2.0000E-02  Zob               Bottom roughness (m).
 2.0000E-02  Zos               Surface roughness (m).
          2  Vtransform        S-coordinate transformation equation.
          5  Vstretching       S-coordinate stretching function.
 3.0000E+00  theta_s           S-coordinate surface control parameter.
 4.0000E+00  theta_b           S-coordinate bottom  control parameter.
     30.000  Tcline            S-coordinate surface/bottom layer width (m) used
                                 in vertical coordinate stretching.
   1025.000  rho0              Mean density (kg/m3) for Boussinesq approximation.
      2.000  dstart            Time-stamp assigned to model initialization (days).
20100420.00  time_ref          Reference time for units attribute (yyyymmdd.dd)
 1.0000E-02  Tnudg(01)         Nudging/relaxation time scale (days)
                                 for tracer 01: temp
 1.0000E-02  Tnudg(02)         Nudging/relaxation time scale (days)
                                 for tracer 02: salt
 1.0000E-02  Znudg             Nudging/relaxation time scale (days)
                                 for free-surface.
 1.0000E-02  M2nudg            Nudging/relaxation time scale (days)
                                 for 2D momentum.
 1.0000E-02  M3nudg            Nudging/relaxation time scale (days)
                                 for 3D momentum.
 1.0000E+00  obcfac            Factor between passive and active
                                 open boundary conditions.
          F  VolCons(1)        NLM western  edge boundary volume conservation.
          F  VolCons(2)        NLM southern edge boundary volume conservation.
          F  VolCons(3)        NLM eastern  edge boundary volume conservation.
          F  VolCons(4)        NLM northern edge boundary volume conservation.
     10.000  T0                Background potential temperature (C) constant.
     30.000  S0                Background salinity (PSU) constant.
   1027.000  R0                Background density (kg/m3) used in linear Equation
                                 of State.
 1.7000E-04  Tcoef             Thermal expansion coefficient (1/Celsius).
 7.6000E-04  Scoef             Saline contraction coefficient (1/PSU).
      1.000  gamma2            Slipperiness variable: free-slip (1.0) or 
                                                      no-slip (-1.0).
          T  LuvSrc            Turning ON  momentum point Sources/Sinks.
          F  LwSrc             Turning OFF volume influx point Sources/Sinks.
          T  LtracerSrc(01)    Turning ON  point Sources/Sinks on tracer 01: temp
          T  LtracerSrc(02)    Turning ON  point Sources/Sinks on tracer 02: salt
          T  LsshCLM           Turning ON  processing of SSH climatology.
          T  Lm2CLM            Turning ON  processing of 2D momentum climatology.
          T  Lm3CLM            Turning ON  processing of 3D momentum climatology.
          T  LtracerCLM(01)    Turning ON  processing of climatology tracer 01: temp
          T  LtracerCLM(02)    Turning ON  processing of climatology tracer 02: salt
          T  LnudgeM2CLM       Turning ON  nudging of 2D momentum climatology.
          T  LnudgeM3CLM       Turning ON  nudging of 3D momentum climatology.
          T  LnudgeTCLM(01)    Turning ON  nudging of climatology tracer 01: temp
          T  LnudgeTCLM(02)    Turning ON  nudging of climatology tracer 02: salt

          T  Hout(idFsur)      Write out free-surface.
          T  Hout(idUvel)      Write out 3D U-momentum component.
          T  Hout(idVvel)      Write out 3D V-momentum component.
          T  Hout(idWvel)      Write out W-momentum component.
          T  Hout(idOvel)      Write out omega vertical velocity.
          T  Hout(idTvar)      Write out tracer 01: temp
          T  Hout(idTvar)      Write out tracer 02: salt
          T  Hout(idpthR)      Write out time-varying dephts of RHO-points.
          T  Hout(idpthU)      Write out time-varying dephts of U-points.
          T  Hout(idpthV)      Write out time-varying dephts of V-points.
          T  Hout(idpthW)      Write out time-varying dephts of W-points.
          T  Hout(idVvis)      Write out vertical viscosity: AKv.
          T  Hout(idTdif)      Write out vertical diffusion: AKt(itemp).
          T  Hout(idMtke)      Write out turbulent kinetic energy.

 Output/Input Files:

             Output Restart File:  oil_rst_off.nc
        Prefix for History Files:  oil_his_off
                 Input Grid File:  ../oil_03/oil_03_grd.nc
        Input Sources/Sinks File:  ../oil_03/oil_03_river.nc
           Input Forcing File 01:  INPUT/oil_frc_off.nc
          Input Climatology File:  INPUT/oil_clm_off.nc
         Input Boundary File 01:  INPUT/oil_03_bdy.nc
         Biology Parameters File:  ./External/bio_Fennel.in

 Tile partition information for Grid 01:  0250x0126x0050  tiling: 010x014

     tile     Istr     Iend     Jstr     Jend     Npts

 Number of tracers:           14
        0        1       25        1        9    11250
        1       26       50        1        9    11250
        2       51       75        1        9    11250
        3       76      100        1        9    11250
        4      101      125        1        9    11250
        5      126      150        1        9    11250
        6      151      175        1        9    11250
        7      176      200        1        9    11250
        8      201      225        1        9    11250
        9      226      250        1        9    11250
       10        1       25       10       18    11250
       11       26       50       10       18    11250
       12       51       75       10       18    11250
       13       76      100       10       18    11250
       14      101      125       10       18    11250
       15      126      150       10       18    11250
       16      151      175       10       18    11250
       17      176      200       10       18    11250
       18      201      225       10       18    11250
       19      226      250       10       18    11250
       20        1       25       19       27    11250
       21       26       50       19       27    11250
       22       51       75       19       27    11250
       23       76      100       19       27    11250
       24      101      125       19       27    11250
       25      126      150       19       27    11250
       26      151      175       19       27    11250
       27      176      200       19       27    11250
       28      201      225       19       27    11250
       29      226      250       19       27    11250
       30        1       25       28       36    11250
       31       26       50       28       36    11250
       32       51       75       28       36    11250
       33       76      100       28       36    11250
       34      101      125       28       36    11250
       35      126      150       28       36    11250
       36      151      175       28       36    11250
       37      176      200       28       36    11250
       38      201      225       28       36    11250
       39      226      250       28       36    11250
       40        1       25       37       45    11250
       41       26       50       37       45    11250
       42       51       75       37       45    11250
       43       76      100       37       45    11250
       44      101      125       37       45    11250
       45      126      150       37       45    11250
       46      151      175       37       45    11250
       47      176      200       37       45    11250
       48      201      225       37       45    11250
       49      226      250       37       45    11250
       50        1       25       46       54    11250
       51       26       50       46       54    11250
       52       51       75       46       54    11250
       53       76      100       46       54    11250
       54      101      125       46       54    11250
       55      126      150       46       54    11250
       56      151      175       46       54    11250
       57      176      200       46       54    11250
       58      201      225       46       54    11250
       59      226      250       46       54    11250
       60        1       25       55       63    11250
       61       26       50       55       63    11250
       62       51       75       55       63    11250
       63       76      100       55       63    11250
       64      101      125       55       63    11250
       65      126      150       55       63    11250
       66      151      175       55       63    11250
       67      176      200       55       63    11250
       68      201      225       55       63    11250
       69      226      250       55       63    11250
       70        1       25       64       72    11250
       71       26       50       64       72    11250
       72       51       75       64       72    11250
       73       76      100       64       72    11250
       74      101      125       64       72    11250
       75      126      150       64       72    11250
       76      151      175       64       72    11250
       77      176      200       64       72    11250
       78      201      225       64       72    11250
       79      226      250       64       72    11250
       80        1       25       73       81    11250
       81       26       50       73       81    11250
       82       51       75       73       81    11250
       83       76      100       73       81    11250
       84      101      125       73       81    11250
       85      126      150       73       81    11250
       86      151      175       73       81    11250
       87      176      200       73       81    11250
       88      201      225       73       81    11250
       89      226      250       73       81    11250
       90        1       25       82       90    11250
       91       26       50       82       90    11250
       92       51       75       82       90    11250
       93       76      100       82       90    11250
       94      101      125       82       90    11250
       95      126      150       82       90    11250
       96      151      175       82       90    11250
       97      176      200       82       90    11250
       98      201      225       82       90    11250
       99      226      250       82       90    11250
      100        1       25       91       99    11250
      101       26       50       91       99    11250
      102       51       75       91       99    11250
      103       76      100       91       99    11250
      104      101      125       91       99    11250
      105      126      150       91       99    11250
      106      151      175       91       99    11250
      107      176      200       91       99    11250
      108      201      225       91       99    11250
      109      226      250       91       99    11250
      110        1       25      100      108    11250
      111       26       50      100      108    11250
      112       51       75      100      108    11250
      113       76      100      100      108    11250
      114      101      125      100      108    11250
      115      126      150      100      108    11250
      116      151      175      100      108    11250
      117      176      200      100      108    11250
      118      201      225      100      108    11250
      119      226      250      100      108    11250
      120        1       25      109      117    11250
      121       26       50      109      117    11250
      122       51       75      109      117    11250
      123       76      100      109      117    11250
      124      101      125      109      117    11250
      125      126      150      109      117    11250
      126      151      175      109      117    11250
      127      176      200      109      117    11250
      128      201      225      109      117    11250
      129      226      250      109      117    11250
      130        1       25      118      126    11250
      131       26       50      118      126    11250
      132       51       75      118      126    11250
      133       76      100      118      126    11250
      134      101      125      118      126    11250
      135      126      150      118      126    11250
      136      151      175      118      126    11250
      137      176      200      118      126    11250
      138      201      225      118      126    11250
      139      226      250      118      126    11250

 Tile minimum and maximum fractional coordinates for Grid 01:
   (interior points only)

     tile     Xmin     Xmax     Ymin     Ymax     grid

        0     0.50    25.50     0.50     9.50  RHO-points
        1    25.50    50.50     0.50     9.50  RHO-points
        2    50.50    75.50     0.50     9.50  RHO-points
        3    75.50   100.50     0.50     9.50  RHO-points
        4   100.50   125.50     0.50     9.50  RHO-points
        5   125.50   150.50     0.50     9.50  RHO-points
        6   150.50   175.50     0.50     9.50  RHO-points
        7   175.50   200.50     0.50     9.50  RHO-points
        8   200.50   225.50     0.50     9.50  RHO-points
        9   225.50   250.50     0.50     9.50  RHO-points
       10     0.50    25.50     9.50    18.50  RHO-points
       11    25.50    50.50     9.50    18.50  RHO-points
       12    50.50    75.50     9.50    18.50  RHO-points
       13    75.50   100.50     9.50    18.50  RHO-points
       14   100.50   125.50     9.50    18.50  RHO-points
       15   125.50   150.50     9.50    18.50  RHO-points
       16   150.50   175.50     9.50    18.50  RHO-points
       17   175.50   200.50     9.50    18.50  RHO-points
       18   200.50   225.50     9.50    18.50  RHO-points
       19   225.50   250.50     9.50    18.50  RHO-points
       20     0.50    25.50    18.50    27.50  RHO-points
       21    25.50    50.50    18.50    27.50  RHO-points
       22    50.50    75.50    18.50    27.50  RHO-points
       23    75.50   100.50    18.50    27.50  RHO-points
       24   100.50   125.50    18.50    27.50  RHO-points
       25   125.50   150.50    18.50    27.50  RHO-points
       26   150.50   175.50    18.50    27.50  RHO-points
       27   175.50   200.50    18.50    27.50  RHO-points
       28   200.50   225.50    18.50    27.50  RHO-points
       29   225.50   250.50    18.50    27.50  RHO-points
       30     0.50    25.50    27.50    36.50  RHO-points
       31    25.50    50.50    27.50    36.50  RHO-points
       32    50.50    75.50    27.50    36.50  RHO-points
       33    75.50   100.50    27.50    36.50  RHO-points
       34   100.50   125.50    27.50    36.50  RHO-points
       35   125.50   150.50    27.50    36.50  RHO-points
       36   150.50   175.50    27.50    36.50  RHO-points
       37   175.50   200.50    27.50    36.50  RHO-points
       38   200.50   225.50    27.50    36.50  RHO-points
       39   225.50   250.50    27.50    36.50  RHO-points
       40     0.50    25.50    36.50    45.50  RHO-points
       41    25.50    50.50    36.50    45.50  RHO-points
       42    50.50    75.50    36.50    45.50  RHO-points
       43    75.50   100.50    36.50    45.50  RHO-points
       44   100.50   125.50    36.50    45.50  RHO-points
       45   125.50   150.50    36.50    45.50  RHO-points
       46   150.50   175.50    36.50    45.50  RHO-points
       47   175.50   200.50    36.50    45.50  RHO-points
       48   200.50   225.50    36.50    45.50  RHO-points
       49   225.50   250.50    36.50    45.50  RHO-points
       50     0.50    25.50    45.50    54.50  RHO-points
       51    25.50    50.50    45.50    54.50  RHO-points
       52    50.50    75.50    45.50    54.50  RHO-points
       53    75.50   100.50    45.50    54.50  RHO-points
       54   100.50   125.50    45.50    54.50  RHO-points
       55   125.50   150.50    45.50    54.50  RHO-points
       56   150.50   175.50    45.50    54.50  RHO-points
       57   175.50   200.50    45.50    54.50  RHO-points
       58   200.50   225.50    45.50    54.50  RHO-points
       59   225.50   250.50    45.50    54.50  RHO-points
       60     0.50    25.50    54.50    63.50  RHO-points
       61    25.50    50.50    54.50    63.50  RHO-points
       62    50.50    75.50    54.50    63.50  RHO-points
       63    75.50   100.50    54.50    63.50  RHO-points
       64   100.50   125.50    54.50    63.50  RHO-points
       65   125.50   150.50    54.50    63.50  RHO-points
       66   150.50   175.50    54.50    63.50  RHO-points
       67   175.50   200.50    54.50    63.50  RHO-points
       68   200.50   225.50    54.50    63.50  RHO-points
       69   225.50   250.50    54.50    63.50  RHO-points
       70     0.50    25.50    63.50    72.50  RHO-points
       71    25.50    50.50    63.50    72.50  RHO-points
       72    50.50    75.50    63.50    72.50  RHO-points
       73    75.50   100.50    63.50    72.50  RHO-points
       74   100.50   125.50    63.50    72.50  RHO-points
       75   125.50   150.50    63.50    72.50  RHO-points
       76   150.50   175.50    63.50    72.50  RHO-points
       77   175.50   200.50    63.50    72.50  RHO-points
       78   200.50   225.50    63.50    72.50  RHO-points
       79   225.50   250.50    63.50    72.50  RHO-points
       80     0.50    25.50    72.50    81.50  RHO-points
       81    25.50    50.50    72.50    81.50  RHO-points
       82    50.50    75.50    72.50    81.50  RHO-points
       83    75.50   100.50    72.50    81.50  RHO-points
       84   100.50   125.50    72.50    81.50  RHO-points
       85   125.50   150.50    72.50    81.50  RHO-points
       86   150.50   175.50    72.50    81.50  RHO-points
       87   175.50   200.50    72.50    81.50  RHO-points
       88   200.50   225.50    72.50    81.50  RHO-points
       89   225.50   250.50    72.50    81.50  RHO-points
       90     0.50    25.50    81.50    90.50  RHO-points
       91    25.50    50.50    81.50    90.50  RHO-points
       92    50.50    75.50    81.50    90.50  RHO-points
       93    75.50   100.50    81.50    90.50  RHO-points
       94   100.50   125.50    81.50    90.50  RHO-points
       95   125.50   150.50    81.50    90.50  RHO-points
       96   150.50   175.50    81.50    90.50  RHO-points
       97   175.50   200.50    81.50    90.50  RHO-points
       98   200.50   225.50    81.50    90.50  RHO-points
       99   225.50   250.50    81.50    90.50  RHO-points
      100     0.50    25.50    90.50    99.50  RHO-points
      101    25.50    50.50    90.50    99.50  RHO-points
      102    50.50    75.50    90.50    99.50  RHO-points
      103    75.50   100.50    90.50    99.50  RHO-points
      104   100.50   125.50    90.50    99.50  RHO-points
      105   125.50   150.50    90.50    99.50  RHO-points
      106   150.50   175.50    90.50    99.50  RHO-points
      107   175.50   200.50    90.50    99.50  RHO-points
      108   200.50   225.50    90.50    99.50  RHO-points
      109   225.50   250.50    90.50    99.50  RHO-points
      110     0.50    25.50    99.50   108.50  RHO-points
      111    25.50    50.50    99.50   108.50  RHO-points
      112    50.50    75.50    99.50   108.50  RHO-points
      113    75.50   100.50    99.50   108.50  RHO-points
      114   100.50   125.50    99.50   108.50  RHO-points
      115   125.50   150.50    99.50   108.50  RHO-points
      116   150.50   175.50    99.50   108.50  RHO-points
      117   175.50   200.50    99.50   108.50  RHO-points
      118   200.50   225.50    99.50   108.50  RHO-points
      119   225.50   250.50    99.50   108.50  RHO-points
      120     0.50    25.50   108.50   117.50  RHO-points
      121    25.50    50.50   108.50   117.50  RHO-points
      122    50.50    75.50   108.50   117.50  RHO-points
      123    75.50   100.50   108.50   117.50  RHO-points
      124   100.50   125.50   108.50   117.50  RHO-points
      125   125.50   150.50   108.50   117.50  RHO-points
      126   150.50   175.50   108.50   117.50  RHO-points
      127   175.50   200.50   108.50   117.50  RHO-points
      128   200.50   225.50   108.50   117.50  RHO-points
      129   225.50   250.50   108.50   117.50  RHO-points
      130     0.50    25.50   117.50   126.50  RHO-points
      131    25.50    50.50   117.50   126.50  RHO-points
      132    50.50    75.50   117.50   126.50  RHO-points
      133    75.50   100.50   117.50   126.50  RHO-points
      134   100.50   125.50   117.50   126.50  RHO-points
      135   125.50   150.50   117.50   126.50  RHO-points
      136   150.50   175.50   117.50   126.50  RHO-points
      137   175.50   200.50   117.50   126.50  RHO-points
      138   200.50   225.50   117.50   126.50  RHO-points
      139   225.50   250.50   117.50   126.50  RHO-points

        0     1.00    25.50     0.50     9.50    U-points
        1    25.50    50.50     0.50     9.50    U-points
        2    50.50    75.50     0.50     9.50    U-points
        3    75.50   100.50     0.50     9.50    U-points
        4   100.50   125.50     0.50     9.50    U-points
        5   125.50   150.50     0.50     9.50    U-points
        6   150.50   175.50     0.50     9.50    U-points
        7   175.50   200.50     0.50     9.50    U-points
        8   200.50   225.50     0.50     9.50    U-points
        9   225.50   250.00     0.50     9.50    U-points
       10     1.00    25.50     9.50    18.50    U-points
       11    25.50    50.50     9.50    18.50    U-points
       12    50.50    75.50     9.50    18.50    U-points
       13    75.50   100.50     9.50    18.50    U-points
       14   100.50   125.50     9.50    18.50    U-points
       15   125.50   150.50     9.50    18.50    U-points
       16   150.50   175.50     9.50    18.50    U-points
       17   175.50   200.50     9.50    18.50    U-points
       18   200.50   225.50     9.50    18.50    U-points
       19   225.50   250.00     9.50    18.50    U-points
       20     1.00    25.50    18.50    27.50    U-points
       21    25.50    50.50    18.50    27.50    U-points
       22    50.50    75.50    18.50    27.50    U-points
       23    75.50   100.50    18.50    27.50    U-points
       24   100.50   125.50    18.50    27.50    U-points
       25   125.50   150.50    18.50    27.50    U-points
       26   150.50   175.50    18.50    27.50    U-points
       27   175.50   200.50    18.50    27.50    U-points
       28   200.50   225.50    18.50    27.50    U-points
       29   225.50   250.00    18.50    27.50    U-points
       30     1.00    25.50    27.50    36.50    U-points
       31    25.50    50.50    27.50    36.50    U-points
       32    50.50    75.50    27.50    36.50    U-points
       33    75.50   100.50    27.50    36.50    U-points
       34   100.50   125.50    27.50    36.50    U-points
       35   125.50   150.50    27.50    36.50    U-points
       36   150.50   175.50    27.50    36.50    U-points
       37   175.50   200.50    27.50    36.50    U-points
       38   200.50   225.50    27.50    36.50    U-points
       39   225.50   250.00    27.50    36.50    U-points
       40     1.00    25.50    36.50    45.50    U-points
       41    25.50    50.50    36.50    45.50    U-points
       42    50.50    75.50    36.50    45.50    U-points
       43    75.50   100.50    36.50    45.50    U-points
       44   100.50   125.50    36.50    45.50    U-points
       45   125.50   150.50    36.50    45.50    U-points
       46   150.50   175.50    36.50    45.50    U-points
       47   175.50   200.50    36.50    45.50    U-points
       48   200.50   225.50    36.50    45.50    U-points
       49   225.50   250.00    36.50    45.50    U-points
       50     1.00    25.50    45.50    54.50    U-points
       51    25.50    50.50    45.50    54.50    U-points
       52    50.50    75.50    45.50    54.50    U-points
       53    75.50   100.50    45.50    54.50    U-points
       54   100.50   125.50    45.50    54.50    U-points
       55   125.50   150.50    45.50    54.50    U-points
       56   150.50   175.50    45.50    54.50    U-points
       57   175.50   200.50    45.50    54.50    U-points
       58   200.50   225.50    45.50    54.50    U-points
       59   225.50   250.00    45.50    54.50    U-points
       60     1.00    25.50    54.50    63.50    U-points
       61    25.50    50.50    54.50    63.50    U-points
       62    50.50    75.50    54.50    63.50    U-points
       63    75.50   100.50    54.50    63.50    U-points
       64   100.50   125.50    54.50    63.50    U-points
       65   125.50   150.50    54.50    63.50    U-points
       66   150.50   175.50    54.50    63.50    U-points
       67   175.50   200.50    54.50    63.50    U-points
       68   200.50   225.50    54.50    63.50    U-points
       69   225.50   250.00    54.50    63.50    U-points
       70     1.00    25.50    63.50    72.50    U-points
       71    25.50    50.50    63.50    72.50    U-points
       72    50.50    75.50    63.50    72.50    U-points
       73    75.50   100.50    63.50    72.50    U-points
       74   100.50   125.50    63.50    72.50    U-points
       75   125.50   150.50    63.50    72.50    U-points
       76   150.50   175.50    63.50    72.50    U-points
       77   175.50   200.50    63.50    72.50    U-points
       78   200.50   225.50    63.50    72.50    U-points
       79   225.50   250.00    63.50    72.50    U-points
       80     1.00    25.50    72.50    81.50    U-points
       81    25.50    50.50    72.50    81.50    U-points
       82    50.50    75.50    72.50    81.50    U-points
       83    75.50   100.50    72.50    81.50    U-points
       84   100.50   125.50    72.50    81.50    U-points
       85   125.50   150.50    72.50    81.50    U-points
       86   150.50   175.50    72.50    81.50    U-points
       87   175.50   200.50    72.50    81.50    U-points
       88   200.50   225.50    72.50    81.50    U-points
       89   225.50   250.00    72.50    81.50    U-points
       90     1.00    25.50    81.50    90.50    U-points
       91    25.50    50.50    81.50    90.50    U-points
       92    50.50    75.50    81.50    90.50    U-points
       93    75.50   100.50    81.50    90.50    U-points
       94   100.50   125.50    81.50    90.50    U-points
       95   125.50   150.50    81.50    90.50    U-points
       96   150.50   175.50    81.50    90.50    U-points
       97   175.50   200.50    81.50    90.50    U-points
       98   200.50   225.50    81.50    90.50    U-points
       99   225.50   250.00    81.50    90.50    U-points
      100     1.00    25.50    90.50    99.50    U-points
      101    25.50    50.50    90.50    99.50    U-points
      102    50.50    75.50    90.50    99.50    U-points
      103    75.50   100.50    90.50    99.50    U-points
      104   100.50   125.50    90.50    99.50    U-points
      105   125.50   150.50    90.50    99.50    U-points
      106   150.50   175.50    90.50    99.50    U-points
      107   175.50   200.50    90.50    99.50    U-points
      108   200.50   225.50    90.50    99.50    U-points
      109   225.50   250.00    90.50    99.50    U-points
      110     1.00    25.50    99.50   108.50    U-points
      111    25.50    50.50    99.50   108.50    U-points
      112    50.50    75.50    99.50   108.50    U-points
      113    75.50   100.50    99.50   108.50    U-points
      114   100.50   125.50    99.50   108.50    U-points
      115   125.50   150.50    99.50   108.50    U-points
      116   150.50   175.50    99.50   108.50    U-points
      117   175.50   200.50    99.50   108.50    U-points
      118   200.50   225.50    99.50   108.50    U-points
      119   225.50   250.00    99.50   108.50    U-points
      120     1.00    25.50   108.50   117.50    U-points
      121    25.50    50.50   108.50   117.50    U-points
      122    50.50    75.50   108.50   117.50    U-points
      123    75.50   100.50   108.50   117.50    U-points
      124   100.50   125.50   108.50   117.50    U-points
      125   125.50   150.50   108.50   117.50    U-points
      126   150.50   175.50   108.50   117.50    U-points
      127   175.50   200.50   108.50   117.50    U-points
      128   200.50   225.50   108.50   117.50    U-points
      129   225.50   250.00   108.50   117.50    U-points
      130     1.00    25.50   117.50   126.50    U-points
      131    25.50    50.50   117.50   126.50    U-points
      132    50.50    75.50   117.50   126.50    U-points
      133    75.50   100.50   117.50   126.50    U-points
      134   100.50   125.50   117.50   126.50    U-points
      135   125.50   150.50   117.50   126.50    U-points
      136   150.50   175.50   117.50   126.50    U-points
      137   175.50   200.50   117.50   126.50    U-points
      138   200.50   225.50   117.50   126.50    U-points
      139   225.50   250.00   117.50   126.50    U-points

        0     0.50    25.50     1.00     9.50    V-points
        1    25.50    50.50     1.00     9.50    V-points
        2    50.50    75.50     1.00     9.50    V-points
        3    75.50   100.50     1.00     9.50    V-points
        4   100.50   125.50     1.00     9.50    V-points
        5   125.50   150.50     1.00     9.50    V-points
        6   150.50   175.50     1.00     9.50    V-points
        7   175.50   200.50     1.00     9.50    V-points
        8   200.50   225.50     1.00     9.50    V-points
        9   225.50   250.50     1.00     9.50    V-points
       10     0.50    25.50     9.50    18.50    V-points
       11    25.50    50.50     9.50    18.50    V-points
       12    50.50    75.50     9.50    18.50    V-points
       13    75.50   100.50     9.50    18.50    V-points
       14   100.50   125.50     9.50    18.50    V-points
       15   125.50   150.50     9.50    18.50    V-points
       16   150.50   175.50     9.50    18.50    V-points
       17   175.50   200.50     9.50    18.50    V-points
       18   200.50   225.50     9.50    18.50    V-points
       19   225.50   250.50     9.50    18.50    V-points
       20     0.50    25.50    18.50    27.50    V-points
       21    25.50    50.50    18.50    27.50    V-points
       22    50.50    75.50    18.50    27.50    V-points
       23    75.50   100.50    18.50    27.50    V-points
       24   100.50   125.50    18.50    27.50    V-points
       25   125.50   150.50    18.50    27.50    V-points
       26   150.50   175.50    18.50    27.50    V-points
       27   175.50   200.50    18.50    27.50    V-points
       28   200.50   225.50    18.50    27.50    V-points
       29   225.50   250.50    18.50    27.50    V-points
       30     0.50    25.50    27.50    36.50    V-points
       31    25.50    50.50    27.50    36.50    V-points
       32    50.50    75.50    27.50    36.50    V-points
       33    75.50   100.50    27.50    36.50    V-points
       34   100.50   125.50    27.50    36.50    V-points
       35   125.50   150.50    27.50    36.50    V-points
       36   150.50   175.50    27.50    36.50    V-points
       37   175.50   200.50    27.50    36.50    V-points
       38   200.50   225.50    27.50    36.50    V-points
       39   225.50   250.50    27.50    36.50    V-points
       40     0.50    25.50    36.50    45.50    V-points
       41    25.50    50.50    36.50    45.50    V-points
       42    50.50    75.50    36.50    45.50    V-points
       43    75.50   100.50    36.50    45.50    V-points
       44   100.50   125.50    36.50    45.50    V-points
       45   125.50   150.50    36.50    45.50    V-points
       46   150.50   175.50    36.50    45.50    V-points
       47   175.50   200.50    36.50    45.50    V-points
       48   200.50   225.50    36.50    45.50    V-points
       49   225.50   250.50    36.50    45.50    V-points
       50     0.50    25.50    45.50    54.50    V-points
       51    25.50    50.50    45.50    54.50    V-points
       52    50.50    75.50    45.50    54.50    V-points
       53    75.50   100.50    45.50    54.50    V-points
       54   100.50   125.50    45.50    54.50    V-points
       55   125.50   150.50    45.50    54.50    V-points
       56   150.50   175.50    45.50    54.50    V-points
       57   175.50   200.50    45.50    54.50    V-points
       58   200.50   225.50    45.50    54.50    V-points
       59   225.50   250.50    45.50    54.50    V-points
       60     0.50    25.50    54.50    63.50    V-points
       61    25.50    50.50    54.50    63.50    V-points
       62    50.50    75.50    54.50    63.50    V-points
       63    75.50   100.50    54.50    63.50    V-points
       64   100.50   125.50    54.50    63.50    V-points
       65   125.50   150.50    54.50    63.50    V-points
       66   150.50   175.50    54.50    63.50    V-points
       67   175.50   200.50    54.50    63.50    V-points
       68   200.50   225.50    54.50    63.50    V-points
       69   225.50   250.50    54.50    63.50    V-points
       70     0.50    25.50    63.50    72.50    V-points
       71    25.50    50.50    63.50    72.50    V-points
       72    50.50    75.50    63.50    72.50    V-points
       73    75.50   100.50    63.50    72.50    V-points
       74   100.50   125.50    63.50    72.50    V-points
       75   125.50   150.50    63.50    72.50    V-points
       76   150.50   175.50    63.50    72.50    V-points
       77   175.50   200.50    63.50    72.50    V-points
       78   200.50   225.50    63.50    72.50    V-points
       79   225.50   250.50    63.50    72.50    V-points
       80     0.50    25.50    72.50    81.50    V-points
       81    25.50    50.50    72.50    81.50    V-points
       82    50.50    75.50    72.50    81.50    V-points
       83    75.50   100.50    72.50    81.50    V-points
       84   100.50   125.50    72.50    81.50    V-points
       85   125.50   150.50    72.50    81.50    V-points
       86   150.50   175.50    72.50    81.50    V-points
       87   175.50   200.50    72.50    81.50    V-points
       88   200.50   225.50    72.50    81.50    V-points
       89   225.50   250.50    72.50    81.50    V-points
       90     0.50    25.50    81.50    90.50    V-points
       91    25.50    50.50    81.50    90.50    V-points
       92    50.50    75.50    81.50    90.50    V-points
       93    75.50   100.50    81.50    90.50    V-points
       94   100.50   125.50    81.50    90.50    V-points
       95   125.50   150.50    81.50    90.50    V-points
       96   150.50   175.50    81.50    90.50    V-points
       97   175.50   200.50    81.50    90.50    V-points
       98   200.50   225.50    81.50    90.50    V-points
       99   225.50   250.50    81.50    90.50    V-points
      100     0.50    25.50    90.50    99.50    V-points
      101    25.50    50.50    90.50    99.50    V-points
      102    50.50    75.50    90.50    99.50    V-points
      103    75.50   100.50    90.50    99.50    V-points
      104   100.50   125.50    90.50    99.50    V-points
      105   125.50   150.50    90.50    99.50    V-points
      106   150.50   175.50    90.50    99.50    V-points
      107   175.50   200.50    90.50    99.50    V-points
      108   200.50   225.50    90.50    99.50    V-points
      109   225.50   250.50    90.50    99.50    V-points
      110     0.50    25.50    99.50   108.50    V-points
      111    25.50    50.50    99.50   108.50    V-points
      112    50.50    75.50    99.50   108.50    V-points
      113    75.50   100.50    99.50   108.50    V-points
      114   100.50   125.50    99.50   108.50    V-points
      115   125.50   150.50    99.50   108.50    V-points
      116   150.50   175.50    99.50   108.50    V-points
      117   175.50   200.50    99.50   108.50    V-points
      118   200.50   225.50    99.50   108.50    V-points
      119   225.50   250.50    99.50   108.50    V-points
      120     0.50    25.50   108.50   117.50    V-points
      121    25.50    50.50   108.50   117.50    V-points
      122    50.50    75.50   108.50   117.50    V-points
      123    75.50   100.50   108.50   117.50    V-points
      124   100.50   125.50   108.50   117.50    V-points
      125   125.50   150.50   108.50   117.50    V-points
      126   150.50   175.50   108.50   117.50    V-points
      127   175.50   200.50   108.50   117.50    V-points
      128   200.50   225.50   108.50   117.50    V-points
      129   225.50   250.50   108.50   117.50    V-points
      130     0.50    25.50   117.50   126.00    V-points
      131    25.50    50.50   117.50   126.00    V-points
      132    50.50    75.50   117.50   126.00    V-points
      133    75.50   100.50   117.50   126.00    V-points
      134   100.50   125.50   117.50   126.00    V-points
      135   125.50   150.50   117.50   126.00    V-points
      136   150.50   175.50   117.50   126.00    V-points
      137   175.50   200.50   117.50   126.00    V-points
      138   200.50   225.50   117.50   126.00    V-points
      139   225.50   250.50   117.50   126.00    V-points

 Maximum halo size in XI and ETA directions:

               HaloSizeI(1) =      74
               HaloSizeJ(1) =      42
                TileSide(1) =      31
                TileSize(1) =     465


 Lateral Boundary Conditions: NLM
 ============================

 Variable               Grid  West Edge    South Edge   East Edge    North Edge
 ---------              ----  ----------   ----------   ----------   ----------

 zeta                     1   Chapman Imp  Chapman Imp  Chapman Imp  Closed

 ubar                     1   Flather      Flather      Flather      Closed

 vbar                     1   Flather      Flather      Flather      Closed

 u                        1   Radiation    Radiation    Radiation    Closed

 v                        1   Radiation    Radiation    Radiation    Closed

 temp                     1   Radiation    Radiation    Radiation    Closed

 salt                     1   Radiation    Radiation    Radiation    Closed

 NO3                      1   Radiation    Radiation    Radiation    Closed

 NH4                      1   Radiation    Radiation    Radiation    Closed

 chlorophyll              1   Radiation    Radiation    Radiation    Closed

 phytoplankton            1   Radiation    Radiation    Radiation    Closed

 zooplankton              1   Radiation    Radiation    Radiation    Closed

 LdetritusN               1   Radiation    Radiation    Radiation    Closed

 SdetritusN               1   Radiation    Radiation    Radiation    Closed

 LdetritusC               1   Radiation    Radiation    Radiation    Closed

 SdetritusC               1   Radiation    Radiation    Radiation    Closed

 TIC                      1   Radiation    Radiation    Radiation    Closed

 Talk                     1   Radiation    Radiation    Radiation    Closed

 oxyg                     1   Radiation    Radiation    Radiation    Closed

 tke                      1   Radiation    Radiation    Radiation    Closed

 Activated C-preprocessing Options:

 oil_offline         Offline oil
 ANA_BIOLOGY         Analytical biology initial conditions.
 ANA_BPFLUX          Analytical bottom passive tracers fluxes.
 ANA_INITIAL         Analytical initial conditions.
 ANA_NUDGCOEF        Analytical spatially varying nudging time-scales.
 ANA_SPFLUX          Analytical surface passive tracer fluxes.
 ASSUMED_SHAPE       Using assumed-shape arrays.
 BIO_FENNEL          Fennel et al. (2006) nitrogen-based model.
 BIO_SEDIMENT        Restore fallen particulate material to the nutrient pool.
 !BOUNDARY_ALLGATHER Using mpi_allreduce in mp_boundary routine.
 CARBON              Add Carbon constituents.
 !COLLECT_ALL...     Using mpi_isend/mpi_recv in mp_collect routine.
 CURVGRID            Orthogonal curvilinear grid.
 DENITRIFICATION     Add denitrification processes.
 DOUBLE_PRECISION    Double precision arithmetic.
 GLS_MIXING          Generic Length-Scale turbulence closure.
 KANTHA_CLAYSON      Kantha and Clayson stability function formulation.
 MASKING             Land/Sea masking.
 MIX_S_UV            Mixing of momentum along constant S-surfaces.
 MPI                 MPI distributed-memory configuration.
 NONLINEAR           Nonlinear Model.
 !NONLIN_EOS         Linear Equation of State for seawater.
 N2S2_HORAVG         Horizontal smoothing of buoyancy and shear.
 OCLIMATOLOGY        Processing omega climatology data.
 !OCMIP_OXYGEN_SC    Schmidt number from Wanninkhof (1992).
 OXYGEN              Add oxygen dynamics.
 POWER_LAW           Power-law shape time-averaging barotropic filter.
 PRSGRD31            Standard density Jacobian formulation (Song, 1998).
 PROFILE             Time profiling activated .
 K_GSCHEME           Third-order upstream advection of TKE fields.
 REDUCE_ALLGATHER    Using mpi_allgather in mp_reduce routine.
 RI_SPLINES          Parabolic Spline Reconstruction for Richardson Number.
 RHO_SURF            Include difference between rho0 and surface density.
 !RST_SINGLE         Double precision fields in restart NetCDF file.
 SOLVE3D             Solving 3D Primitive Equations.
 SPLINES_VDIFF       Parabolic Spline Reconstruction for Vertical Diffusion.
 SPLINES_VVISC       Parabolic Spline Reconstruction for Vertical Viscosity.
 !TALK_NONCONSERV    Alkalinity is passive and unaffected by nitrate or ammonium.
 TS_C4HADVECTION     Fourth-order centered horizontal advection of tracers.
 TS_C4VADVECTION     Fourth-order centered vertical advection of tracers.
 UV_QDRAG            Quadratic bottom stress.
 UV_VIS2             Harmonic mixing of momentum.
 VAR_RHO_2D          Variable density barotropic mode.

 Process Information:

 Node #  0 (pid=   46258) is active.
 Node # 14 (pid=   46272) is active.
 Node # 15 (pid=   46273) is active.
 Node # 18 (pid=   46276) is active.
 Node # 19 (pid=   46277) is active.
 Node # 22 (pid=   46280) is active.
 Node # 24 (pid=   46282) is active.
 Node # 26 (pid=   46284) is active.
 Node # 27 (pid=   46285) is active.
 Node #  1 (pid=   46259) is active.
 Node #  2 (pid=   46260) is active.
 Node #  3 (pid=   46261) is active.
 Node #  4 (pid=   46262) is active.
 Node #  5 (pid=   46263) is active.
 Node #  7 (pid=   46265) is active.
 Node #  8 (pid=   46266) is active.
 Node #  9 (pid=   46267) is active.
 Node # 10 (pid=   46268) is active.
 Node # 11 (pid=   46269) is active.
 Node # 12 (pid=   46270) is active.
 Node # 13 (pid=   46271) is active.
 Node # 17 (pid=   46275) is active.
 Node # 20 (pid=   46278) is active.
 Node # 21 (pid=   46279) is active.
 Node # 23 (pid=   46281) is active.
 Node # 25 (pid=   46283) is active.
 Node # 16 (pid=   46274) is active.
 Node #  6 (pid=   46264) is active.
 Node # 73 (pid=   26676) is active.
 Node # 58 (pid=   26661) is active.
 Node # 82 (pid=   26685) is active.
 Node # 88 (pid=   30138) is active.
 Node # 56 (pid=   26659) is active.
 Node # 98 (pid=   30148) is active.
 Node # 77 (pid=   26680) is active.
 Node # 70 (pid=   26673) is active.
 Node # 90 (pid=   30140) is active.
 Node #108 (pid=   30158) is active.
 Node # 83 (pid=   26686) is active.
 Node # 96 (pid=   30146) is active.
 Node #116 (pid=   29086) is active.
 Node # 61 (pid=   26664) is active.
 Node #131 (pid=   29101) is active.
 Node # 78 (pid=   26681) is active.
 Node #100 (pid=   30150) is active.
 Node # 62 (pid=   26665) is active.
 Node # 51 (pid=   37600) is active.
 Node #120 (pid=   29090) is active.
 Node # 74 (pid=   26677) is active.
 Node # 47 (pid=   37596) is active.
 Node #103 (pid=   30153) is active.
 Node #137 (pid=   29107) is active.
 Node # 40 (pid=   37589) is active.
 Node # 80 (pid=   26683) is active.
 Node # 33 (pid=   37582) is active.
 Node # 68 (pid=   26671) is active.
 Node #104 (pid=   30154) is active.
 Node # 79 (pid=   26682) is active.
 Node #112 (pid=   29082) is active.
 Node # 34 (pid=   37583) is active.
 Node # 63 (pid=   26666) is active.
 Node # 43 (pid=   37592) is active.
 Node #127 (pid=   29097) is active.
 Node # 91 (pid=   30141) is active.
 Node #125 (pid=   29095) is active.
 Node #102 (pid=   30152) is active.
 Node # 45 (pid=   37594) is active.
 Node # 89 (pid=   30139) is active.
 Node # 39 (pid=   37588) is active.
 Node #132 (pid=   29102) is active.
 Node #105 (pid=   30155) is active.
 Node # 84 (pid=   30134) is active.
 Node #114 (pid=   29084) is active.
 Node # 66 (pid=   26669) is active.
 Node # 46 (pid=   37595) is active.
 Node # 41 (pid=   37590) is active.
 Node #130 (pid=   29100) is active.
 Node # 69 (pid=   26672) is active.
 Node # 30 (pid=   37579) is active.
 Node #107 (pid=   30157) is active.
 Node # 29 (pid=   37578) is active.
 Node #110 (pid=   30160) is active.
 Node # 64 (pid=   26667) is active.
 Node #121 (pid=   29091) is active.
 Node # 67 (pid=   26670) is active.
 Node #101 (pid=   30151) is active.
 Node #106 (pid=   30156) is active.
 Node #113 (pid=   29083) is active.
 Node #122 (pid=   29092) is active.
 Node # 48 (pid=   37597) is active.
 Node #111 (pid=   30161) is active.
 Node # 85 (pid=   30135) is active.
 Node #135 (pid=   29105) is active.
 Node # 28 (pid=   37577) is active.
 Node # 97 (pid=   30147) is active.
 Node # 37 (pid=   37586) is active.
 Node # 49 (pid=   37598) is active.
 Node # 75 (pid=   26678) is active.
 Node #129 (pid=   29099) is active.
 Node # 87 (pid=   30137) is active.
 Node #109 (pid=   30159) is active.
 Node # 93 (pid=   30143) is active.
 Node # 65 (pid=   26668) is active.
 Node #123 (pid=   29093) is active.
 Node # 60 (pid=   26663) is active.
 Node # 38 (pid=   37587) is active.
 Node #118 (pid=   29088) is active.
 Node #134 (pid=   29104) is active.
 Node # 71 (pid=   26674) is active.
 Node # 72 (pid=   26675) is active.
 Node #133 (pid=   29103) is active.
 Node # 99 (pid=   30149) is active.
 Node # 54 (pid=   37603) is active.
 Node # 57 (pid=   26660) is active.
 Node # 76 (pid=   26679) is active.
 Node # 53 (pid=   37602) is active.
 Node # 92 (pid=   30142) is active.
 Node # 44 (pid=   37593) is active.
 Node # 35 (pid=   37584) is active.
 Node #139 (pid=   29109) is active.
 Node # 42 (pid=   37591) is active.
 Node #115 (pid=   29085) is active.
 Node # 50 (pid=   37599) is active.
 Node #138 (pid=   29108) is active.
 Node # 81 (pid=   26684) is active.
 Node #128 (pid=   29098) is active.
 Node # 52 (pid=   37601) is active.
 Node # 31 (pid=   37580) is active.
 Node # 94 (pid=   30144) is active.
 Node # 55 (pid=   37604) is active.
 Node #124 (pid=   29094) is active.
 Node # 86 (pid=   30136) is active.
 Node #117 (pid=   29087) is active.
 Node #126 (pid=   29096) is active.
 Node # 32 (pid=   37581) is active.
 Node # 36 (pid=   37585) is active.
 Node # 95 (pid=   30145) is active.
 Node #119 (pid=   29089) is active.
 Node # 59 (pid=   26662) is active.
 Node #136 (pid=   29106) is active.

 INITIAL: Configuring and initializing forward nonlinear model ...
 *******

    GET_GRID    - bathymetry at RHO-points: h
                   (Grid = 01, File: ../oil_03/oil_03_grd.nc)
                   (Min =  4.00000000E+00 Max =  3.43749950E+03)
    GET_GRID    - Coriolis parameter at RHO-points: f
                   (Grid = 01, File: ../oil_03/oil_03_grd.nc)
                   (Min =  6.29981039E-05 Max =  7.43933936E-05)
    GET_GRID    - reciprocal XI-grid spacing: pm
                   (Grid = 01, File: ../oil_03/oil_03_grd.nc)
                   (Min =  2.49292567E-04 Max =  2.61409524E-04)
    GET_GRID    - reciprocal ETA-grid spacing: pn
                   (Grid = 01, File: ../oil_03/oil_03_grd.nc)
                   (Min =  2.24820144E-04 Max =  2.24820144E-04)
    GET_GRID    - x-location of RHO-points: x-rho
                   (Grid = 01, File: ../oil_03/oil_03_grd.nc)
                   (Min =  1.00000000E+37 Max = -1.00000000E+37)
    GET_GRID    - y-location of RHO-points: y_rho
                   (Grid = 01, File: ../oil_03/oil_03_grd.nc)
                   (Min =  1.00000000E+37 Max = -1.00000000E+37)
    GET_GRID    - x-location of PSI-points: x_psi
                   (Grid = 01, File: ../oil_03/oil_03_grd.nc)
                   (Min =  1.00000000E+37 Max = -1.00000000E+37)
    GET_GRID    - y-location of PSI-points: y-psi
                   (Grid = 01, File: ../oil_03/oil_03_grd.nc)
                   (Min =  1.00000000E+37 Max = -1.00000000E+37)
    GET_GRID    - x-location of U-points: x_u
                   (Grid = 01, File: ../oil_03/oil_03_grd.nc)
                   (Min =  1.00000000E+37 Max = -1.00000000E+37)
    GET_GRID    - y-location of U-points: y_u
                   (Grid = 01, File: ../oil_03/oil_03_grd.nc)
                   (Min =  1.00000000E+37 Max = -1.00000000E+37)
    GET_GRID    - x-location of V-points: x_v
                   (Grid = 01, File: ../oil_03/oil_03_grd.nc)
                   (Min =  1.00000000E+37 Max = -1.00000000E+37)
    GET_GRID    - y-location of V-points: y_v
                   (Grid = 01, File: ../oil_03/oil_03_grd.nc)
                   (Min =  1.00000000E+37 Max = -1.00000000E+37)
    GET_GRID    - latitude of RHO-points lat_rho
                   (Grid = 01, File: ../oil_03/oil_03_grd.nc)
                   (Min =  2.56000004E+01 Max =  3.06800004E+01)
    GET_GRID    - longitude of RHO-points: lon_rho
                   (Grid = 01, File: ../oil_03/oil_03_grd.nc)
                   (Min = -9.40000000E+01 Max = -8.39600000E+01)
    GET_GRID    - latitude of PSI-points lat_psi
                   (Grid = 01, File: ../oil_03/oil_03_grd.nc)
                   (Min =  2.56200004E+01 Max =  3.06600004E+01)
    GET_GRID    - longitude of PSI-points: lon_psi
                   (Grid = 01, File: ../oil_03/oil_03_grd.nc)
                   (Min = -9.39800000E+01 Max = -8.39800000E+01)
    GET_GRID    - latitude of U-points: lat_u
                   (Grid = 01, File: ../oil_03/oil_03_grd.nc)
                   (Min =  2.56000004E+01 Max =  3.06800004E+01)
    GET_GRID    - longitude of U-points: lon_u
                   (Grid = 01, File: ../oil_03/oil_03_grd.nc)
                   (Min = -9.39800000E+01 Max = -8.39800000E+01)
    GET_GRID    - latitude of V-points: lat_v
                   (Grid = 01, File: ../oil_03/oil_03_grd.nc)
                   (Min =  2.56200004E+01 Max =  3.06600004E+01)
    GET_GRID    - longitude of V-points: lon_v
                   (Grid = 01, File: ../oil_03/oil_03_grd.nc)
                   (Min = -9.40000000E+01 Max = -8.39600000E+01)
    GET_GRID    - mask on RHO-points: mask_rho
                   (Grid = 01, File: ../oil_03/oil_03_grd.nc)
                   (Min =  0.00000000E+00 Max =  1.00000000E+00)
    GET_GRID    - mask on U-points: mask_u
                   (Grid = 01, File: ../oil_03/oil_03_grd.nc)
                   (Min =  0.00000000E+00 Max =  1.00000000E+00)
    GET_GRID    - mask on V-points: mask_v
                   (Grid = 01, File: ../oil_03/oil_03_grd.nc)
                   (Min =  0.00000000E+00 Max =  1.00000000E+00)
    GET_GRID    - mask on PSI-points: mask_psi
                   (Grid = 01, File: ../oil_03/oil_03_grd.nc)
                   (Min =  0.00000000E+00 Max =  1.00000000E+00)
    GET_GRID    - angle between XI-axis and EAST: angler
                   (Grid = 01, File: ../oil_03/oil_03_grd.nc)
                   (Min =  0.00000000E+00 Max =  0.00000000E+00)

 Vertical S-coordinate System, Grid 01:

 level   S-coord     Cs-curve   Z   at hmin       at hc    half way     at hmax

    50   0.0000000   0.0000000        0.000       0.000       0.000       0.000
    49  -0.0100000  -0.0002022       -0.035      -0.153      -0.637      -0.986
    48  -0.0204082  -0.0008421       -0.072      -0.319      -2.026      -3.477
    47  -0.0312245  -0.0019710       -0.111      -0.498      -4.254      -7.645
    46  -0.0424490  -0.0036421       -0.152      -0.691      -7.411     -13.674
    45  -0.0540816  -0.0059101       -0.194      -0.900     -11.590     -21.749
    44  -0.0661224  -0.0088316       -0.238      -1.124     -16.886     -32.062
    43  -0.0785714  -0.0124645       -0.283      -1.366     -23.397     -44.813
    42  -0.0914286  -0.0168682       -0.331      -1.624     -31.224     -60.202
    41  -0.1046939  -0.0221035       -0.380      -1.902     -40.470     -78.437
    40  -0.1183673  -0.0282318       -0.431      -2.199     -51.238     -99.728
    39  -0.1324490  -0.0353159       -0.484      -2.516     -63.634    -124.287
    38  -0.1469388  -0.0434185       -0.539      -2.855     -77.765    -152.330
    37  -0.1618367  -0.0526031       -0.596      -3.217     -93.738    -184.072
    36  -0.1771429  -0.0629326       -0.655      -3.601    -111.659    -219.727
    35  -0.1928571  -0.0744693       -0.716      -4.010    -131.634    -259.509
    34  -0.2089796  -0.0872744       -0.779      -4.444    -153.766    -303.625
    33  -0.2255102  -0.1014071       -0.844      -4.904    -178.156    -352.278
    32  -0.2424490  -0.1169237       -0.911      -5.391    -204.898    -405.658
    31  -0.2597959  -0.1338772       -0.980      -5.905    -234.082    -463.948
    30  -0.2775510  -0.1523156       -1.051      -6.448    -265.790    -527.309
    29  -0.2957143  -0.1722810       -1.125      -7.020    -300.092    -595.887
    28  -0.3142857  -0.1938080       -1.200      -7.621    -337.047    -669.798
    27  -0.3332653  -0.2169221       -1.278      -8.253    -376.699    -749.130
    26  -0.3526531  -0.2416380       -1.358      -8.914    -419.072    -833.932
    25  -0.3724490  -0.2679571       -1.441      -9.606    -464.168    -924.210
    24  -0.3926531  -0.2958656       -1.525     -10.328    -511.964   -1019.916
    23  -0.4132653  -0.3253319       -1.612     -11.079    -562.408   -1120.943
    22  -0.4342857  -0.3563041       -1.700     -11.859    -615.409   -1227.114
    21  -0.4557143  -0.3887069       -1.791     -12.666    -670.843   -1338.173
    20  -0.4775510  -0.4224393       -1.884     -13.500    -728.537   -1453.774
    19  -0.4997959  -0.4573718       -1.979     -14.358    -788.273   -1573.477
    18  -0.5224490  -0.4933440       -2.076     -15.237    -849.780   -1696.735
    17  -0.5455102  -0.5301629       -2.175     -16.135    -912.730   -1822.891
    16  -0.5689796  -0.5676014       -2.275     -17.049    -976.741   -1951.171
    15  -0.5928571  -0.6053985       -2.377     -17.974   -1041.369   -2080.684
    14  -0.6171429  -0.6432602       -2.481     -18.906   -1106.120   -2210.430
    13  -0.6418367  -0.6808623       -2.586     -19.840   -1170.443   -2339.303
    12  -0.6669388  -0.7178554       -2.692     -20.772   -1233.748   -2466.113
    11  -0.6924490  -0.7538718       -2.799     -21.695   -1295.414   -2589.607
    10  -0.7183673  -0.7885351       -2.906     -22.604   -1354.803   -2708.502
     9  -0.7446939  -0.8214722       -3.015     -23.492   -1411.284   -2821.527
     8  -0.7714286  -0.8523280       -3.124     -24.356   -1464.258   -2927.471
     7  -0.7985714  -0.8807813       -3.233     -25.190   -1513.180   -3025.240
     6  -0.8261224  -0.9065619       -3.342     -25.990   -1557.594   -3113.914
     5  -0.8540816  -0.9294674       -3.452     -26.753   -1597.158   -3192.802
     4  -0.8824490  -0.9493782       -3.561     -27.477   -1631.669   -3261.497
     3  -0.9112245  -0.9662678       -3.671     -28.162   -1661.082   -3319.908
     2  -0.9404082  -0.9802083       -3.780     -28.809   -1685.520   -3368.282
     1  -0.9700000  -0.9913678       -3.890     -29.421   -1705.266   -3407.191
     0  -1.0000000  -1.0000000       -4.000     -30.000   -1720.750   -3437.500

 Time Splitting Weights for Grid 01:    ndtfast =  15    nfast =  22
 ==================================

    Primary            Secondary            Accumulated to Current Step

  1-0.0006740978872509 0.0666666666666667-0.0006740978872509 0.0666666666666667
  2-0.0001913161153518 0.0667116065258167-0.0008654140026027 0.1333782731924834
  3 0.0014472038369421 0.0667243609335069 0.0005817898343395 0.2001026341259903
  4 0.0042370228855824 0.0666278806777107 0.0048188127199218 0.2667305148037010
  5 0.0081665994120431 0.0663454124853385 0.0129854121319649 0.3330759272890396
  6 0.0132119623624627 0.0658009725245357 0.0261973744944276 0.3988768998135752
  7 0.0193298623751124 0.0649201750337048 0.0455272368695400 0.4637970748472801
  8 0.0264494009361902 0.0636315175420307 0.0719766378057303 0.5274285923893107
  9 0.0344621375639418 0.0618682241462847 0.1064387753696720 0.5892968165355954
 10 0.0432106750211074 0.0595707483086885 0.1496494503907794 0.6488675648442840
 11 0.0524757225556949 0.0566900366406147 0.2021251729464743 0.7055576014848987
 12 0.0619616371700794 0.0531916551369017 0.2640868101165537 0.7587492566218004
 13 0.0712804429184289 0.0490608793255631 0.3353672530349826 0.8078101359473635
 14 0.0799343282324558 0.0443088497976678 0.4153015812674384 0.8521189857450313
 15 0.0872966212754959 0.0389798945821708 0.5025982025429343 0.8910988803272021
 16 0.0925912433249121 0.0331601198304711 0.5951894458678464 0.9242590001576731
 17 0.0948706401828253 0.0269873702754769 0.6900600860506717 0.9512463704331501
 18 0.0929921916151718 0.0206626609299552 0.7830522776658435 0.9719090313631054
 19 0.0855930988190858 0.0144631814889438 0.8686453764849293 0.9863722128520491
 20 0.0710637499186094 0.0087569749010047 0.9397091264035388 0.9951291877530538
 21 0.0475195634887281 0.0040193915730974 0.9872286898922669 0.9991485793261512
 22 0.0127713101077333 0.0008514206738489 1.0000000000000002 1.0000000000000000

 ndtfast, nfast =   15  22   nfast/ndtfast =  1.46667

 Centers of gravity and integrals (values must be 1, 1, approx 1/2, 1, 1):

    1.000000000000 1.070450639131 0.535225319565 1.000000000000 1.000000000000

 Power filter parameters, Fgamma, gamma =  0.28400   0.09467

 Metrics information for Grid 01:
 ===============================

 Minimum X-grid spacing, DXmin =  3.82541533E+00 km
 Maximum X-grid spacing, DXmax =  4.01135105E+00 km
 Minimum Y-grid spacing, DYmin =  4.44800000E+00 km
 Maximum Y-grid spacing, DYmax =  4.44800000E+00 km
 Minimum Z-grid spacing, DZmin =  3.53892736E-02 m
 Maximum Z-grid spacing, DZmax =  1.29745715E+02 m

 Minimum barotropic Courant Number =  2.85286950E-03
 Maximum barotropic Courant Number =  8.21937792E-02
 Maximum Coriolis   Courant Number =  1.48436480E-03

 Set up nudging towards data time-scale coefficients
 Set up nudging towards data time-scale coefficients
 Set up nudging towards data time-scale coefficients
 Set up nudging towards data time-scale coefficients
 Set up nudging towards data time-scale coefficients
 Set up nudging towards data time-scale coefficients
 Set up nudging towards data time-scale coefficients
 Set up nudging towards data time-scale coefficients
 Set up nudging towards data time-scale coefficients
 Set up nudging towards data time-scale coefficients
 Set up nudging towards data time-scale coefficients
 Set up nudging towards data time-scale coefficients
 Set up nudging towards data time-scale coefficients
 Set up nudging towards data time-scale coefficients
 Set up nudging towards data time-scale coefficients
 Set up nudging towards data time-scale coefficients
 Set up nudging towards data time-scale coefficients
 Set up nudging towards data time-scale coefficients
 Set up nudging towards data time-scale coefficients
 Set up nudging towards data time-scale coefficients
 Set up nudging towards data time-scale coefficients
 Set up nudging towards data time-scale coefficients
 Set up nudging towards data time-scale coefficients
 Set up nudging towards data time-scale coefficients
 Set up nudging towards data time-scale coefficients
 Set up nudging towards data time-scale coefficients
 Set up nudging towards data time-scale coefficients
 Set up nudging towards data time-scale coefficients
 Set up nudging towards data time-scale coefficients
 Set up nudging towards data time-scale coefficients
 Set up nudging towards data time-scale coefficients
 Set up nudging towards data time-scale coefficients
 Set up nudging towards data time-scale coefficients
 Set up nudging towards data time-scale coefficients
 Set up nudging towards data time-scale coefficients
 Set up nudging towards data time-scale coefficients
 Set up nudging towards data time-scale coefficients
 Set up nudging towards data time-scale coefficients
 Set up nudging towards data time-scale coefficients
 Set up nudging towards data time-scale coefficients
 Set up nudging towards data time-scale coefficients
 Set up nudging towards data time-scale coefficients
 Set up nudging towards data time-scale coefficients
 Set up nudging towards data time-scale coefficients
 Set up nudging towards data time-scale coefficients
 Set up nudging towards data time-scale coefficients
 Set up nudging towards data time-scale coefficients
 Set up nudging towards data time-scale coefficients
 Set up nudging towards data time-scale coefficients
 Set up nudging towards data time-scale coefficients
 Set up nudging towards data time-scale coefficients
 Set up nudging towards data time-scale coefficients
 Set up nudging towards data time-scale coefficients
 Set up nudging towards data time-scale coefficients
 Set up nudging towards data time-scale coefficients
 Set up nudging towards data time-scale coefficients
 Set up nudging towards data time-scale coefficients
 Set up nudging towards data time-scale coefficients
 Set up nudging towards data time-scale coefficients
 Set up nudging towards data time-scale coefficients
 Set up nudging towards data time-scale coefficients
 Set up nudging towards data time-scale coefficients
 Set up nudging towards data time-scale coefficients
 Set up nudging towards data time-scale coefficients
 Set up nudging towards data time-scale coefficients
 Set up nudging towards data time-scale coefficients
 Set up nudging towards data time-scale coefficients
 Set up nudging towards data time-scale coefficients
 Set up nudging towards data time-scale coefficients
 Set up nudging towards data time-scale coefficients
 Set up nudging towards data time-scale coefficients
 Set up nudging towards data time-scale coefficients
 Set up nudging towards data time-scale coefficients
 Set up nudging towards data time-scale coefficients
 Set up nudging towards data time-scale coefficients
 Set up nudging towards data time-scale coefficients
 Set up nudging towards data time-scale coefficients
 Set up nudging towards data time-scale coefficients
 Set up nudging towards data time-scale coefficients
 Set up nudging towards data time-scale coefficients
 Set up nudging towards data time-scale coefficients
 Set up nudging towards data time-scale coefficients
 Set up nudging towards data time-scale coefficients
 Set up nudging towards data time-scale coefficients
 Set up nudging towards data time-scale coefficients
 Set up nudging towards data time-scale coefficients
 Set up nudging towards data time-scale coefficients
 Set up nudging towards data time-scale coefficients
 Set up nudging towards data time-scale coefficients
 Set up nudging towards data time-scale coefficients
 Set up nudging towards data time-scale coefficients
 Set up nudging towards data time-scale coefficients
 Set up nudging towards data time-scale coefficients
 Set up nudging towards data time-scale coefficients
 Set up nudging towards data time-scale coefficients
 Set up nudging towards data time-scale coefficients
 Set up nudging towards data time-scale coefficients
 Set up nudging towards data time-scale coefficients
 Set up nudging towards data time-scale coefficients
 Set up nudging towards data time-scale coefficients
 Set up nudging towards data time-scale coefficients
 Set up nudging towards data time-scale coefficients
 Set up nudging towards data time-scale coefficients
 Set up nudging towards data time-scale coefficients
 Set up nudging towards data time-scale coefficients
 Set up nudging towards data time-scale coefficients
 Set up nudging towards data time-scale coefficients
 Set up nudging towards data time-scale coefficients
 Set up nudging towards data time-scale coefficients
 Set up nudging towards data time-scale coefficients
 Set up nudging towards data time-scale coefficients
 Set up nudging towards data time-scale coefficients
 Set up nudging towards data time-scale coefficients
 Set up nudging towards data time-scale coefficients
 Set up nudging towards data time-scale coefficients
 Set up nudging towards data time-scale coefficients
 Set up nudging towards data time-scale coefficients
 Set up nudging towards data time-scale coefficients
 Set up nudging towards data time-scale coefficients
 Set up nudging towards data time-scale coefficients
 Set up nudging towards data time-scale coefficients
 Set up nudging towards data time-scale coefficients
 Set up nudging towards data time-scale coefficients
 Set up nudging towards data time-scale coefficients
 Set up nudging towards data time-scale coefficients
 Set up nudging towards data time-scale coefficients
 Set up nudging towards data time-scale coefficients
 Set up nudging towards data time-scale coefficients
 Set up nudging towards data time-scale coefficients
 Set up nudging towards data time-scale coefficients
 Set up nudging towards data time-scale coefficients
 Set up nudging towards data time-scale coefficients
 Set up nudging towards data time-scale coefficients
 Set up nudging towards data time-scale coefficients
 Set up nudging towards data time-scale coefficients
 Set up nudging towards data time-scale coefficients
 Set up nudging towards data time-scale coefficients
 Set up nudging towards data time-scale coefficients
 Set up nudging towards data time-scale coefficients
 Set up nudging towards data time-scale coefficients
    ANA_INITIAL - vertically integrated u-momentum component: ubar
                   (Grid = 01, Min =  0.00000000E+00 Max =  0.00000000E+00)
    ANA_INITIAL - vertically integrated v-momentum component: vbar
                   (Grid = 01, Min =  0.00000000E+00 Max =  0.00000000E+00)
    ANA_INITIAL - free-surface: zeta
                   (Grid = 01, Min =  0.00000000E+00 Max =  0.00000000E+00)
    ANA_INITIAL - u-momentum component: u
                   (Grid = 01, Min =  0.00000000E+00 Max =  0.00000000E+00)
    ANA_INITIAL - v-momentum component: v
                   (Grid = 01, Min =  0.00000000E+00 Max =  0.00000000E+00)
    ANA_INITIAL - potential temperature: temp
                   (Grid = 01, Min =  1.00000000E+01 Max =  1.00000000E+01)
    ANA_INITIAL - salinity: salt
                   (Grid = 01, Min =  0.00000000E+00 Max =  0.00000000E+00)
    ANA_BIOLOGY - nitrate concentration: NO3
                   (Grid = 01, Min =  1.68930556E+01 Max =  1.68930556E+01)
    ANA_BIOLOGY - ammonium concentration: NH4
                   (Grid = 01, Min =  1.00000000E-01 Max =  1.00000000E-01)
    ANA_BIOLOGY - chlorophyll concentration: chlorophyll
                   (Grid = 01, Min =  2.00000000E-02 Max =  2.00000000E-02)
    ANA_BIOLOGY - phytoplankton concentration: phytoplankton
                   (Grid = 01, Min =  8.00000000E-02 Max =  8.00000000E-02)
    ANA_BIOLOGY - zooplankton concentration: zooplankton
                   (Grid = 01, Min =  6.00000000E-02 Max =  6.00000000E-02)
    ANA_BIOLOGY - large fraction nitrogen detritus concentration: LdetritusN
                   (Grid = 01, Min =  2.00000000E-02 Max =  2.00000000E-02)
    ANA_BIOLOGY - small fraction nitrogen detritus concentration: SdetritusN
                   (Grid = 01, Min =  4.00000000E-02 Max =  4.00000000E-02)
    ANA_BIOLOGY - large fraction carbon detritus concentration: LdetritusC
                   (Grid = 01, Min =  2.00000000E-03 Max =  2.00000000E-03)
    ANA_BIOLOGY - small fraction carbon detritus concentration: SdetritusC
                   (Grid = 01, Min =  6.00000000E-02 Max =  6.00000000E-02)
    ANA_BIOLOGY - total inorganic carbon: TIC
                   (Grid = 01, Min =  2.10000000E+03 Max =  2.10000000E+03)
    ANA_BIOLOGY - total alkalinity: Talk
                   (Grid = 01, Min =  2.35000000E+03 Max =  2.35000000E+03)
    ANA_BIOLOGY - dissolved oxygen concentration: oxyg
                   (Grid = 01, Min =  4.46229362E+02 Max =  4.46229362E+02)
    GET_NGFLD   - river runoff  XI-positions at RHO-points
                   (Grid = 01, Min =  4.00000000E+00 Max =  2.46000000E+02)
    GET_NGFLD   - river runoff ETA-positions at RHO-points
                   (Grid = 01, Min =  8.80000000E+01 Max =  1.26000000E+02)
    GET_NGFLD   - river runoff direction
                   (Grid = 01, Min =  0.00000000E+00 Max =  1.00000000E+00)
    GET_NGFLD   - river runoff mass transport vertical profile
                   (Grid = 01, Min =  4.00000000E-04 Max =  3.96000000E-02)
    GET_NGFLD   - river runoff mass transport,                     2010-04-21 00:00:00.00
                   (Grid= 01, Rec=0000002, Index=2, File: oil_03_river.nc)
                   (Tmin=          0.0000 Tmax=         92.0000)      t =          1.0000
                   (Min = -1.00242002E+04 Max =  4.59964058E+03)
    GET_NGFLD   - river runoff potential temperature,              2010-04-21 00:00:00.00
                   (Grid= 01, Rec=0000002, Index=2, File: oil_03_river.nc)
                   (Tmin=          0.0000 Tmax=         92.0000)      t =          1.0000
                   (Min =  2.04152050E+01 Max =  2.54689713E+01)
    GET_NGFLD   - river runoff salinity,                           2010-04-21 00:00:00.00
                   (Grid= 01, Rec=0000002, Index=2, File: oil_03_river.nc)
                   (Tmin=          0.0000 Tmax=         92.0000)      t =          1.0000
                   (Min =  3.00000000E+00 Max =  3.00000000E+00)
    GET_2DFLD   - surface u-momentum stress,                       2010-04-22 00:00:00.00
                   (Grid=01, Rec=0000001, Index=1, File: oil_frc_off.nc)
                   (Tmin=          1.2500 Tmax=         12.7500)      t =          2.0000
                   (Min = -2.25085129E-05 Max =  2.39234054E-05)      regrid = F
    GET_2DFLD   - surface v-momentum stress,                       2010-04-22 00:00:00.00
                   (Grid=01, Rec=0000001, Index=1, File: oil_frc_off.nc)
                   (Tmin=          1.2500 Tmax=         12.7500)      t =          2.0000
                   (Min = -2.20070234E-05 Max =  2.17338851E-05)      regrid = F
    GET_2DFLD   - solar shortwave radiation flux,                  2010-04-21 23:00:00.00
                   (Grid=01, Rec=0000048, Index=1, File: oil_frc_off.nc)
                   (Tmin=          0.0000 Tmax=         93.0000)      t =          1.9583
                   (Min =  1.61649189E-05 Max =  1.14600362E-04)      regrid = F
    GET_2DFLD   - surface net heat flux,                           2010-04-22 00:00:00.00
                   (Grid=01, Rec=0000001, Index=1, File: oil_frc_off.nc)
                   (Tmin=          1.2500 Tmax=         12.7500)      t =          2.0000
                   (Min = -4.29952433E-05 Max =  2.90230919E-05)      regrid = F
    GET_2DFLD   - bottom net heat flux,                            2010-04-21 23:00:00.00
                   (Grid=01, Rec=0000048, Index=1, File: oil_frc_off.nc)
                   (Tmin=          0.0000 Tmax=         93.0000)      t =          1.9583
                   (Min =  0.00000000E+00 Max =  0.00000000E+00)      regrid = F
    GET_NGFLD   - free-surface western boundary condition,         2010-04-21 00:00:00.00
                   (Grid= 01, Rec=0000002, Index=2, File: oil_03_bdy.nc)
                   (Tmin=          0.0000 Tmax=         92.0000)      t =          1.0000
                   (Min = -2.74000013E-01 Max = -8.10000305E-02)
    GET_NGFLD   - free-surface eastern boundary condition,         2010-04-21 00:00:00.00
                   (Grid= 01, Rec=0000002, Index=2, File: oil_03_bdy.nc)
                   (Tmin=          0.0000 Tmax=         92.0000)      t =          1.0000
                   (Min = -1.96999995E-01 Max = -1.22499477E-01)
    GET_NGFLD   - free-surface southern boundary condition,        2010-04-21 00:00:00.00
                   (Grid= 01, Rec=0000002, Index=2, File: oil_03_bdy.nc)
                   (Tmin=          0.0000 Tmax=         92.0000)      t =          1.0000
                   (Min = -4.29000020E-01 Max =  2.96999465E-01)
    GET_NGFLD   - 2D u-momentum western boundary condition,        2010-04-21 00:00:00.00
                   (Grid= 01, Rec=0000002, Index=2, File: oil_03_bdy.nc)
                   (Tmin=          0.0000 Tmax=         92.0000)      t =          1.0000
                   (Min = -1.00183919E-01 Max =  2.37548858E-01)
    GET_NGFLD   - 2D v-momentum western boundary condition,        2010-04-21 00:00:00.00
                   (Grid= 01, Rec=0000002, Index=2, File: oil_03_bdy.nc)
                   (Tmin=          0.0000 Tmax=         92.0000)      t =          1.0000
                   (Min = -5.08535691E-02 Max =  2.45240051E-02)
    GET_NGFLD   - 2D u-momentum eastern boundary condition,        2010-04-21 00:00:00.00
                   (Grid= 01, Rec=0000002, Index=2, File: oil_03_bdy.nc)
                   (Tmin=          0.0000 Tmax=         92.0000)      t =          1.0000
                   (Min = -4.09290232E-02 Max =  9.20293331E-02)
    GET_NGFLD   - 2D v-momentum eastern boundary condition,        2010-04-21 00:00:00.00
                   (Grid= 01, Rec=0000002, Index=2, File: oil_03_bdy.nc)
                   (Tmin=          0.0000 Tmax=         92.0000)      t =          1.0000
                   (Min = -1.01989433E-01 Max =  5.18996231E-02)
    GET_NGFLD   - 2D u-momentum southern boundary condition,       2010-04-21 00:00:00.00
                   (Grid= 01, Rec=0000002, Index=2, File: oil_03_bdy.nc)
                   (Tmin=          0.0000 Tmax=         92.0000)      t =          1.0000
                   (Min = -2.55609840E-01 Max =  2.44240221E-02)
    GET_NGFLD   - 2D v-momentum southern boundary condition,       2010-04-21 00:00:00.00
                   (Grid= 01, Rec=0000002, Index=2, File: oil_03_bdy.nc)
                   (Tmin=          0.0000 Tmax=         92.0000)      t =          1.0000
                   (Min = -2.01190680E-01 Max =  1.73273489E-01)
    GET_2DFLD   - sea surface height climatology,                  2010-04-21 18:00:00.00
                   (Grid=01, Rec=0000003, Index=1, File: oil_clm_off.nc)
                   (Tmin=          1.2500 Tmax=         12.7500)      t =          1.7500
                   (Min = -3.46117973E-01 Max =  5.72944105E-01)      regrid = F
    GET_2DFLD   - vertically integrated u-momentum climatolog,     2010-04-21 18:00:00.00
                   (Grid=01, Rec=0000003, Index=1, File: oil_clm_off.nc)
                   (Tmin=          1.2500 Tmax=         12.7500)      t =          1.7500
                   (Min = -3.33506227E-01 Max =  2.84254044E-01)      regrid = F
    GET_2DFLD   - vertically integrated v-momentum climatolog,     2010-04-21 18:00:00.00
                   (Grid=01, Rec=0000003, Index=1, File: oil_clm_off.nc)
                   (Tmin=          1.2500 Tmax=         12.7500)      t =          1.7500
                   (Min = -6.57970309E-01 Max =  2.82676637E-01)      regrid = F
[...]
      WRT_HIS     - wrote history     fields (Index=1,2) in record = 0003964
      3964 2010-04-22 22:01:20.00  1.230141E-02  1.241350E+04  1.241351E+04  6.247011E+14
                     (063,099,35)  2.057494E-04  3.385467E-03  5.911842E-02  2.117715E+00
      WRT_HIS     - wrote history     fields (Index=1,1) in record = 0003965
      3965 2010-04-22 22:01:40.00  1.230243E-02  1.241350E+04  1.241351E+04  6.247011E+14
                     (063,099,35)  2.057175E-04  3.385430E-03  5.911688E-02  2.117692E+00
      WRT_HIS     - wrote history     fields (Index=1,2) in record = 0003966
      3966 2010-04-22 22:02:00.00  1.230162E-02  1.241350E+04  1.241351E+04  6.247011E+14
                     (063,099,35)  2.056855E-04  3.385394E-03  5.911534E-02  2.117669E+00
      WRT_HIS     - wrote history     fields (Index=1,1) in record = 0003967
      3967 2010-04-22 22:02:20.00  1.230265E-02  1.241350E+04  1.241351E+04  6.247011E+14
                     (063,099,35)  2.056536E-04  3.385357E-03  5.911379E-02  2.117646E+00
      WRT_HIS     - wrote history     fields (Index=1,2) in record = 0003968
      3968 2010-04-22 22:02:40.00  1.230184E-02  1.241350E+04  1.241351E+04  6.247011E+14
                     (063,099,35)  2.056216E-04  3.385321E-03  5.911225E-02  2.117622E+00
      WRT_HIS     - wrote history     fields (Index=1,1) in record = 0003969
      3969 2010-04-22 22:03:00.00  1.230287E-02  1.241350E+04  1.241351E+04  6.247011E+14
                     (063,099,35)  2.055897E-04  3.385284E-03  5.911071E-02  2.117599E+00
      WRT_HIS     - wrote history     fields (Index=1,2) in record = 0003970
      3970 2010-04-22 22:03:20.00  1.230206E-02  1.241350E+04  1.241351E+04  6.247011E+14
                     (063,099,35)  2.055577E-04  3.385248E-03  5.910916E-02  2.117576E+00
      WRT_HIS     - wrote history     fields (Index=1,1) in record = 0003971
      3971 2010-04-22 22:03:40.00  1.230310E-02  1.241350E+04  1.241351E+04  6.247011E+14
                     (063,099,35)  2.055258E-04  3.385211E-03  5.910762E-02  2.117553E+00
      WRT_HIS     - wrote history     fields (Index=1,2) in record = 0003972
      3972 2010-04-22 22:04:00.00  1.230229E-02  1.241350E+04  1.241351E+04  6.247011E+14
                     (063,099,35)  2.054939E-04  3.385175E-03  5.910608E-02  2.117530E+00
      WRT_HIS     - wrote history     fields (Index=1,1) in record = 0003973
      3973 2010-04-22 22:04:20.00  1.230333E-02  1.241350E+04  1.241351E+04  6.247011E+14
                     (063,099,35)  2.054619E-04  3.385138E-03  5.910453E-02  2.117507E+00
      WRT_HIS     - wrote history     fields (Index=1,2) in record = 0003974
      3974 2010-04-22 22:04:40.00  1.230253E-02  1.241350E+04  1.241351E+04  6.247011E+14
                     (063,099,35)  2.054300E-04  3.385102E-03  5.910299E-02  2.117484E+00
      WRT_HIS     - wrote history     fields (Index=1,1) in record = 0003975
      3975 2010-04-22 22:05:00.00  1.230358E-02  1.241350E+04  1.241351E+04  6.247011E+14
                     (063,099,35)  2.053980E-04  3.385065E-03  5.910144E-02  2.117461E+00
      WRT_HIS     - wrote history     fields (Index=1,2) in record = 0003976
      3976 2010-04-22 22:05:20.00  1.230278E-02  1.241350E+04  1.241351E+04  6.247011E+14
                     (063,099,35)  2.053661E-04  3.385029E-03  5.909990E-02  2.117438E+00
      WRT_HIS     - wrote history     fields (Index=1,1) in record = 0003977
      3977 2010-04-22 22:05:40.00  1.230383E-02  1.241350E+04  1.241351E+04  6.247011E+14
                     (063,099,35)  2.053341E-04  3.384992E-03  5.909836E-02  2.117415E+00
      WRT_HIS     - wrote history     fields (Index=1,2) in record = 0003978
      3978 2010-04-22 22:06:00.00  1.230303E-02  1.241350E+04  1.241351E+04  6.247011E+14
                     (063,099,35)  2.053022E-04  3.384956E-03  5.909681E-02  2.117391E+00
      WRT_HIS     - wrote history     fields (Index=1,1) in record = 0003979
      3979 2010-04-22 22:06:20.00  1.230408E-02  1.241350E+04  1.241351E+04  6.247011E+14
                     (063,099,35)  2.052702E-04  3.384919E-03  5.909527E-02  2.117368E+00
      WRT_HIS     - wrote history     fields (Index=1,2) in record = 0003980
      3980 2010-04-22 22:06:40.00  1.230330E-02  1.241350E+04  1.241351E+04  6.247011E+14
                     (063,099,35)  2.052383E-04  3.384883E-03  5.909373E-02  2.117345E+00
      WRT_HIS     - wrote history     fields (Index=1,1) in record = 0003981
      3981 2010-04-22 22:07:00.00  1.230435E-02  1.241350E+04  1.241351E+04  6.247011E+14
                     (063,099,35)  2.052064E-04  3.384846E-03  5.909218E-02  2.117322E+00
      WRT_HIS     - wrote history     fields (Index=1,2) in record = 0003982
      3982 2010-04-22 22:07:20.00  1.230356E-02  1.241350E+04  1.241351E+04  6.247011E+14
                     (063,099,35)  2.051744E-04  3.384810E-03  5.909064E-02  2.117299E+00
      WRT_HIS     - wrote history     fields (Index=1,1) in record = 0003983
      3983 2010-04-22 22:07:40.00  1.230462E-02  1.241350E+04  1.241351E+04  6.247011E+14
                     (063,099,35)  2.051425E-04  3.384773E-03  5.908910E-02  2.117276E+00
      WRT_HIS     - wrote history     fields (Index=1,2) in record = 0003984
      3984 2010-04-22 22:08:00.00  1.230384E-02  1.241350E+04  1.241351E+04  6.247011E+14
                     (063,099,35)  2.051105E-04  3.384737E-03  5.908755E-02  2.117253E+00
      WRT_HIS     - wrote history     fields (Index=1,1) in record = 0003985
      3985 2010-04-22 22:08:20.00  1.230490E-02  1.241350E+04  1.241351E+04  6.247011E+14
                     (063,099,35)  2.050786E-04  3.384700E-03  5.908601E-02  2.117230E+00
      WRT_HIS     - wrote history     fields (Index=1,2) in record = 0003986
      3986 2010-04-22 22:08:40.00  1.230412E-02  1.241350E+04  1.241351E+04  6.247011E+14
                     (063,099,35)  2.050466E-04  3.384664E-03  5.908447E-02  2.117207E+00
      WRT_HIS     - wrote history     fields (Index=1,1) in record = 0003987
      3987 2010-04-22 22:09:00.00  1.230519E-02  1.241350E+04  1.241351E+04  6.247011E+14
                     (063,099,35)  2.050147E-04  3.384627E-03  5.908292E-02  2.117183E+00
      WRT_HIS     - wrote history     fields (Index=1,2) in record = 0003988
      3988 2010-04-22 22:09:20.00  1.230442E-02  1.241350E+04  1.241351E+04  6.247011E+14
                     (063,099,35)  2.049828E-04  3.384591E-03  5.908138E-02  2.117160E+00
      WRT_HIS     - wrote history     fields (Index=1,1) in record = 0003989
      3989 2010-04-22 22:09:40.00  1.230548E-02  1.241350E+04  1.241351E+04  6.247011E+14
                     (063,099,35)  2.049508E-04  3.384554E-03  5.907984E-02  2.117137E+00
      WRT_HIS     - wrote history     fields (Index=1,2) in record = 0003990
      3990 2010-04-22 22:10:00.00  1.230471E-02  1.241350E+04  1.241351E+04  6.247011E+14
                     (063,099,35)  2.049189E-04  3.384518E-03  5.907829E-02  2.117114E+00
      WRT_HIS     - wrote history     fields (Index=1,1) in record = 0003991
      3991 2010-04-22 22:10:20.00  1.230579E-02  1.241350E+04  1.241351E+04  6.247011E+14
                     (063,099,35)  2.048869E-04  3.384481E-03  5.907675E-02  2.117091E+00
      WRT_HIS     - wrote history     fields (Index=1,2) in record = 0003992
      3992 2010-04-22 22:10:40.00  1.230502E-02  1.241350E+04  1.241351E+04  6.247011E+14
                     (063,099,35)  2.048550E-04  3.384445E-03  5.907521E-02  2.117068E+00
      WRT_HIS     - wrote history     fields (Index=1,1) in record = 0003993
      3993 2010-04-22 22:11:00.00  1.230610E-02  1.241350E+04  1.241351E+04  6.247011E+14
                     (063,099,35)  2.048230E-04  3.384408E-03  5.907366E-02  2.117045E+00
      WRT_HIS     - wrote history     fields (Index=1,2) in record = 0003994
      3994 2010-04-22 22:11:20.00  1.230533E-02  1.241350E+04  1.241351E+04  6.247011E+14
                     (063,099,35)  2.047911E-04  3.384372E-03  5.907212E-02  2.117022E+00
      WRT_HIS     - wrote history     fields (Index=1,1) in record = 0003995
      3995 2010-04-22 22:11:40.00  1.230641E-02  1.241350E+04  1.241351E+04  6.247011E+14
                     (063,099,35)  2.047591E-04  3.384335E-03  5.907058E-02  2.116999E+00
      WRT_HIS     - wrote history     fields (Index=1,2) in record = 0003996
      3996 2010-04-22 22:12:00.00  1.230566E-02  1.241350E+04  1.241351E+04  6.247011E+14
                     (063,099,35)  2.047272E-04  3.384299E-03  5.906903E-02  2.116975E+00
      WRT_HIS     - wrote history     fields (Index=1,1) in record = 0003997
      3997 2010-04-22 22:12:20.00  1.230674E-02  1.241350E+04  1.241351E+04  6.247011E+14
                     (063,099,35)  2.046953E-04  3.384262E-03  5.906749E-02  2.116952E+00
      WRT_HIS     - wrote history     fields (Index=1,2) in record = 0003998
      3998 2010-04-22 22:12:40.00  1.230598E-02  1.241350E+04  1.241351E+04  6.247011E+14
                     (063,099,35)  2.046633E-04  3.384226E-03  5.906595E-02  2.116929E+00
      WRT_HIS     - wrote history     fields (Index=1,1) in record = 0003999
      3999 2010-04-22 22:13:00.00  1.230707E-02  1.241350E+04  1.241351E+04  6.247011E+14
                     (063,099,35)  2.046314E-04  3.384189E-03  5.906440E-02  2.116906E+00
      WRT_HIS     - wrote history     fields (Index=1,2) in record = 0004000
      4000 2010-04-22 22:13:20.00  1.230632E-02  1.241350E+04  1.241351E+04  6.247011E+14
                     (063,099,35)  2.045994E-04  3.384153E-03  5.906286E-02  2.116883E+00
      WRT_HIS     - wrote history     fields (Index=1,1) in record = 0004001
      4001 2010-04-22 22:13:40.00  1.230741E-02  1.241350E+04  1.241351E+04  6.247011E+14
                     (063,099,35)  2.045675E-04  3.384116E-03  5.906132E-02  2.116860E+00
      WRT_HIS     - wrote history     fields (Index=1,2) in record = 0004002
      4002 2010-04-22 22:14:00.00  1.230666E-02  1.241350E+04  1.241351E+04  6.247011E+14
                     (063,099,35)  2.045355E-04  3.384080E-03  5.905977E-02  2.116837E+00
      WRT_HIS     - wrote history     fields (Index=1,1) in record = 0004003
      4003 2010-04-22 22:14:20.00  1.230776E-02  1.241350E+04  1.241351E+04  6.247011E+14
                     (063,099,35)  2.045036E-04  3.384043E-03  5.905823E-02  2.116814E+00
      WRT_HIS     - wrote history     fields (Index=1,2) in record = 0004004
      4004 2010-04-22 22:14:40.00  1.230701E-02  1.241350E+04  1.241351E+04  6.247011E+14
                     (063,099,35)  2.044717E-04  3.384007E-03  5.905668E-02  2.116791E+00
      WRT_HIS     - wrote history     fields (Index=1,1) in record = 0004005
      4005 2010-04-22 22:15:00.00  1.230811E-02  1.241350E+04  1.241351E+04  6.247011E+14
                     (063,099,35)  2.044397E-04  3.383970E-03  5.905514E-02  2.116768E+00
      WRT_HIS     - wrote history     fields (Index=1,2) in record = 0004006
      4006 2010-04-22 22:15:20.00  1.230737E-02  1.241350E+04  1.241351E+04  6.247011E+14
                     (063,099,35)  2.044078E-04  3.383934E-03  5.905360E-02  2.116744E+00
      WRT_HIS     - wrote history     fields (Index=1,1) in record = 0004007
      4007 2010-04-22 22:15:40.00  1.230847E-02  1.241350E+04  1.241351E+04  6.247011E+14
                     (063,099,35)  2.043758E-04  3.383897E-03  5.905205E-02  2.116721E+00
      WRT_HIS     - wrote history     fields (Index=1,2) in record = 0004008
      4008 2010-04-22 22:16:00.00  1.230774E-02  1.241350E+04  1.241351E+04  6.247011E+14
                     (063,099,35)  2.043439E-04  3.383861E-03  5.905051E-02  2.116698E+00
      WRT_HIS     - wrote history     fields (Index=1,1) in record = 0004009
      4009 2010-04-22 22:16:20.00  1.230884E-02  1.241350E+04  1.241351E+04  6.247011E+14
                     (063,099,35)  2.043119E-04  3.383824E-03  5.904897E-02  2.116675E+00
      WRT_HIS     - wrote history     fields (Index=1,2) in record = 0004010
      4010 2010-04-22 22:16:40.00  1.230811E-02  1.241350E+04  1.241351E+04  6.247011E+14
                     (063,099,35)  2.042800E-04  3.383788E-03  5.904742E-02  2.116652E+00
 Found Error: **   Line: 4832     Source: ROMS/Modules/mod_netcdf.F, netcdf_put_fvar

 NETCDF_PUT_FVAR_1D - error while writing variable:  ocean_time
                      in input file:  oil_his_off_00001.nc
                      call from:  ROMS/Utility/wrt_his.F
 Disk quota exceeded
 Found Error: 03   Line: 158      Source: ROMS/Utility/wrt_his.F
 Found Error: 03   Line: 170      Source: ROMS/Nonlinear/output.F
 Found Error: 03   Line: 350      Source: ROMS/Drivers/nl_ocean.h

 Elapsed CPU time (seconds):

 Node   #  0 CPU:    6973.697
 Node   #  2 CPU:    7512.711
 Node   #  3 CPU:    7507.560
 Node   #  4 CPU:    7509.056
 Node   #  5 CPU:    7503.073
 Node   #  7 CPU:    7503.265
 Node   #  8 CPU:    7503.077
 Node   # 10 CPU:    7502.565
 Node   # 11 CPU:    7502.988
 Node   # 14 CPU:    7509.043
 Node   #  9 CPU:    7507.663
 Node   # 12 CPU:    7511.991
 Node   # 13 CPU:    7498.558
 Node   # 15 CPU:    7508.192
 Node   # 16 CPU:    7503.241
 Node   # 17 CPU:    7499.839
 Node   # 18 CPU:    7499.550
 Node   # 19 CPU:    7502.288
 Node   # 20 CPU:    7492.682
 Node   # 21 CPU:    7491.249
 Node   # 22 CPU:    7501.333
 Node   # 23 CPU:    7498.568
 Node   # 24 CPU:    7492.514
 Node   # 25 CPU:    7505.229
 Node   # 26 CPU:    7487.611
 Node   # 27 CPU:    7497.203
 Node   #  1 CPU:    7501.666
 Node   # 30 CPU:    7512.464
 Node   #  6 CPU:    7509.957
 Node   #119 CPU:    7507.987
 Node   # 66 CPU:    7510.356
 Node   # 40 CPU:    7513.206
 Node   #108 CPU:    7509.559
 Node   #139 CPU:    7511.869
 Node   # 67 CPU:    7510.526
 Node   # 41 CPU:    7509.760
 Node   #102 CPU:    7511.020
 Node   #112 CPU:    7485.498
 Node   # 61 CPU:    7505.763
 Node   # 45 CPU:    7512.761
 Node   #103 CPU:    7510.984
 Node   #120 CPU:    7507.304
 Node   # 69 CPU:    7505.788
 Node   # 50 CPU:    7510.086
 Node   # 98 CPU:    7508.955
 Node   #131 CPU:    7512.207
 Node   # 63 CPU:    7512.591
 Node   # 51 CPU:    7483.513
 Node   #125 CPU:    7509.805
 Node   # 52 CPU:    7507.983
 Node   #128 CPU:    7506.517
 Node   # 34 CPU:    7512.951
 Node   #137 CPU:    7508.106
 Node   # 42 CPU:    7511.454
 Node   # 79 CPU:    7480.515
 Node   # 46 CPU:    7511.142
 Node   #101 CPU:    7505.295
 Node   # 49 CPU:    7505.359
 Node   # 39 CPU:    7511.173
 Node   # 54 CPU:    7509.869
 Node   # 28 CPU:    7484.775
 Node   # 31 CPU:    7512.172
 Node   # 70 CPU:    7506.835
 Node   #113 CPU:    7509.710
 Node   # 99 CPU:    7511.647
 Node   # 59 CPU:    7512.101
 Node   # 37 CPU:    7512.307
 Node   #100 CPU:    7508.164
 Node   #122 CPU:    7507.900
 Node   # 65 CPU:    7510.413
 Node   # 35 CPU:    7501.451
 Node   #107 CPU:    7500.243
 Node   # 36 CPU:    7509.693
 Node   # 91 CPU:    7511.535
 Node   #138 CPU:    7502.030
 Node   #111 CPU:    7505.728
 Node   # 82 CPU:    7509.538
 Node   # 29 CPU:    7510.599
 Node   # 96 CPU:    7511.390
 Node   #133 CPU:    7511.297
 Node   # 68 CPU:    7510.414
 Node   # 47 CPU:    7510.479
 Node   # 97 CPU:    7511.715
 Node   #129 CPU:    7509.383
 Node   # 73 CPU:    7510.602
 Node   # 32 CPU:    7512.832
 Node   #104 CPU:    7505.929
 Node   #127 CPU:    7510.101
 Node   # 81 CPU:    7508.893
 Node   # 43 CPU:    7500.091
 Node   # 84 CPU:    7479.998
 Node   # 71 CPU:    7508.792
 Node   # 44 CPU:    7511.158
 Node   # 89 CPU:    7511.742
 Node   # 62 CPU:    7510.462
 Node   # 53 CPU:    7511.475
 Node   #105 CPU:    7475.649
 Node   #134 CPU:    7507.290
 Node   # 78 CPU:    7505.743
 Node   # 55 CPU:    7513.358
 Node   #110 CPU:    7504.784
 Node   #136 CPU:    7509.744
 Node   # 57 CPU:    7512.359
 Node   # 38 CPU:    7507.438
 Node   # 56 CPU:    7484.387
 Node   # 48 CPU:    7512.757
 Node   # 77 CPU:    7512.468
 Node   # 33 CPU:    7510.808
 Node   # 95 CPU:    7511.848
 Node   #126 CPU:    7473.136
 Node   # 80 CPU:    7510.169
 Node   # 88 CPU:    7510.587
 Node   #135 CPU:    7509.044
 Node   # 58 CPU:    7510.347
 Node   # 92 CPU:    7511.700
 Node   #132 CPU:    7510.214
 Node   # 64 CPU:    7503.432
 Node   #106 CPU:    7509.898
 Node   #130 CPU:    7511.222
 Node   # 72 CPU:    7509.238
 Node   #109 CPU:    7502.387
 Node   # 75 CPU:    7509.165
 Node   # 90 CPU:    7510.063
 Node   #116 CPU:    7511.622
 Node   # 76 CPU:    7512.194
 Node   #114 CPU:    7506.568
 Node   # 74 CPU:    7506.656
 Node   #115 CPU:    7509.827
 Node   # 83 CPU:    7512.106
 Node   #118 CPU:    7511.883
 Node   # 60 CPU:    7511.749
 Node   #121 CPU:    7506.735
 Node   # 93 CPU:    7509.967
 Node   #123 CPU:    7510.533
 Node   # 86 CPU:    7508.996
 Node   #124 CPU:    7511.614
 Node   # 87 CPU:    7511.343
 Node   #117 CPU:    7505.732
 Node   # 94 CPU:    7511.884
 Node   # 85 CPU:    7511.547
 Total:           1050372.523

 Nonlinear model elapsed CPU time profile, Grid: 01

  Allocation and array initialization ..............        37.044  ( 0.0035 %)
  Ocean state initialization .......................         4.479  ( 0.0004 %)
  Reading of input data ............................       792.561  ( 0.0755 %)
  Processing of input data .........................      6339.015  ( 0.6035 %)
  Computation of vertical boundary conditions ......        48.860  ( 0.0047 %)
  Computation of global information integrals ......      2868.491  ( 0.2731 %)
  Writing of output data ...........................    929159.650  (88.4600 %)
  2D/3D coupling, vertical metrics .................       539.744  ( 0.0514 %)
  Omega vertical velocity ..........................       702.428  ( 0.0669 %)
  Equation of state for seawater ...................      1154.799  ( 0.1099 %)
  Biological module, source/sink terms .............     23986.684  ( 2.2836 %)
  GLS vertical mixing parameterization .............     19011.430  ( 1.8100 %)
  3D equations predictor step ......................     28047.612  ( 2.6703 %)
  Pressure gradient ................................      1314.865  ( 0.1252 %)
  Corrector time-step for tracers ..................     34985.990  ( 3.3308 %)
                                              Total:   1048993.653   99.8687

 Nonlinear model message Passage profile, Grid: 01

  Message Passage: 2D halo exchanges ...............      2461.183  ( 0.2343 %)
  Message Passage: 3D halo exchanges ...............      4195.946  ( 0.3995 %)
  Message Passage: 4D halo exchanges ...............      6955.276  ( 0.6622 %)
  Message Passage: data broadcast ..................    542656.774  (51.6633 %)
  Message Passage: data reduction ..................       402.516  ( 0.0383 %)
  Message Passage: data gathering ..................    288745.398  (27.4898 %)
  Message Passage: data scattering..................       127.274  ( 0.0121 %)
  Message Passage: synchronization barrier .........         0.319  ( 0.0000 %)
                                              Total:    845544.687   80.4995

  Unique code regions profiled .....................   1048993.653   99.8687 %
  Residual, non-profiled code ......................      1378.870    0.1313 %


 All percentages are with respect to total time =      1050372.523


 ROMS/TOMS - Output NetCDF summary for Grid 01:
             number of time records written in HISTORY file = 00004011

 Analytical header files used:

     /scratch/user/vrx/CSOMIO/oil_off/Functionals/ana_biology.h
     /scratch/user/vrx/CSOMIO/oil_off/Functionals/ana_btflux.h
     /scratch/user/vrx/CSOMIO/oil_off/Functionals/ana_initial.h
     /scratch/user/vrx/CSOMIO/oil_off/Functionals/ana_nudgcoef.h
     /scratch/user/vrx/CSOMIO/oil_off/Functionals/ana_stflux.h

 Biology model header files used:

     ROMS/Nonlinear/Biology/fennel.h
 Found Error: 03   Line: 456      Source: ROMS/Utility/close_io.F

 ROMS/TOMS - Output error ............ exit_flag:   3


 ERROR: Abnormal termination: NetCDF OUTPUT.
 REASON: Disk quota exceeded                                                             
