--------------------------------------------------------------------------------
 Model Input Parameters:  ROMS/TOMS version 3.7  
                          Tuesday - August 6, 2019 -  9:11:22 PM
 --------------------------------------------------------------------------------

 Offline oil

 Operating system : Linux
 CPU/hardware     : x86_64
 Compiler system  : ifort
 Compiler command : /sw/eb/sw/impi/2018.3.222-iccifort-2018.3.222-GCC-7.3.0-2.30/bin64/mpiifort
 Compiler flags   : -fp-model fast -heap-arrays -g -check uninit -traceback -free -free

 Input Script  : 

 SVN Root URL  : https:://myroms.org/svn/src
 SVN Revision  : Unversioned directory

 Local Root    : /scratch/user/vrx/CSOMIO/COAWST-ROMS-OIL
 Header Dir    : /scratch/user/vrx/CSOMIO/oil_off
 Header file   : oil_offline.h
 Analytical Dir: /scratch/user/vrx/CSOMIO/oil_off/Functionals

 Resolution, Grid 01: 0250x0126x050,  Parallel Nodes:   8,  Tiling: 004x002


 Physical Parameters, Grid: 01
 =============================

      28800  ntimes            Number of timesteps for 3-D equations.
     20.000  dt                Timestep size (s) for 3-D equations.
         15  ndtfast           Number of timesteps for 2-D equations between
                                 each 3D timestep.
          1  ERstr             Starting ensemble/perturbation run number.
          1  ERend             Ending ensemble/perturbation run number.
          0  nrrec             Number of restart records to read from disk.
          T  LcycleRST         Switch to recycle time-records in restart file.
      28800  nRST              Number of timesteps between the writing of data
                                 into restart fields.
          1  ninfo             Number of timesteps between print of information
                                 to standard output.
          T  ldefout           Switch to create a new output NetCDF file(s).
          1  nHIS              Number of timesteps between the writing fields
                                 into history file.
       8640  ndefHIS           Number of timesteps between creation of new
                                 history files.
          0  nQCK              Number of timesteps between the writing fields
                                 into quicksave file.
 5.0000E+00  nl_visc2          NLM Horizontal, harmonic mixing coefficient
                                 (m2/s) for momentum.
          F  LuvSponge         Turning OFF sponge on horizontal momentum.
          F  LtracerSponge(01) Turning OFF sponge on tracer 01: temp
          F  LtracerSponge(02) Turning OFF sponge on tracer 02: salt
 1.0000E-06  Akt_bak(01)       Background vertical mixing coefficient (m2/s)
                                 for tracer 01: temp
 1.0000E-06  Akt_bak(02)       Background vertical mixing coefficient (m2/s)
                                 for tracer 02: salt
 1.0000E-05  Akv_bak           Background vertical mixing coefficient (m2/s)
                                 for momentum.
 5.0000E-06  Akk_bak           Background vertical mixing coefficient (m2/s)
                                 for turbulent energy.
 5.0000E-06  Akp_bak           Background vertical mixing coefficient (m2/s)
                                 for turbulent generic statistical field.
      3.000  gls_p             GLS stability exponent.
      1.500  gls_m             GLS turbulent kinetic energy exponent.
     -1.000  gls_n             GLS turbulent length scale exponent.
 7.6000E-06  gls_Kmin          GLS minimum value of turbulent kinetic energy.
 1.0000E-12  gls_Pmin          GLS minimum value of dissipation.
 5.4770E-01  gls_cmu0          GLS stability coefficient.
 1.4400E+00  gls_c1            GLS shear production coefficient.
 1.9200E+00  gls_c2            GLS dissipation coefficient.
-4.0000E-01  gls_c3m           GLS stable buoyancy production coefficient.
 1.0000E+00  gls_c3p           GLS unstable buoyancy production coefficient.
 1.0000E+00  gls_sigk          GLS constant Schmidt number for TKE.
 1.3000E+00  gls_sigp          GLS constant Schmidt number for PSI.
   1400.000  charnok_alpha     Charnok factor for Zos calculation.
      0.500  zos_hsig_alpha    Factor for Zos calculation using Hsig(Awave).
      0.250  sz_alpha          Factor for Wave dissipation surface tke flux .
    100.000  crgban_cw         Factor for Craig/Banner surface tke flux.
      0.000  wec_alpha         WEC factor for roller/breaking energy distribution.
 3.0000E-04  rdrg              Linear bottom drag coefficient (m/s).
 2.5000E-02  rdrg2             Quadratic bottom drag coefficient.
 2.0000E-02  Zob               Bottom roughness (m).
 2.0000E-02  Zos               Surface roughness (m).
          2  Vtransform        S-coordinate transformation equation.
          5  Vstretching       S-coordinate stretching function.
 3.0000E+00  theta_s           S-coordinate surface control parameter.
 4.0000E+00  theta_b           S-coordinate bottom  control parameter.
     30.000  Tcline            S-coordinate surface/bottom layer width (m) used
                                 in vertical coordinate stretching.
   1025.000  rho0              Mean density (kg/m3) for Boussinesq approximation.
      2.000  dstart            Time-stamp assigned to model initialization (days).
20100420.00  time_ref          Reference time for units attribute (yyyymmdd.dd)
 1.0000E-02  Tnudg(01)         Nudging/relaxation time scale (days)
                                 for tracer 01: temp
 1.0000E-02  Tnudg(02)         Nudging/relaxation time scale (days)
                                 for tracer 02: salt
 1.0000E-02  Znudg             Nudging/relaxation time scale (days)
                                 for free-surface.
 1.0000E-02  M2nudg            Nudging/relaxation time scale (days)
                                 for 2D momentum.
 1.0000E-02  M3nudg            Nudging/relaxation time scale (days)
                                 for 3D momentum.
 1.0000E+00  obcfac            Factor between passive and active
                                 open boundary conditions.
          F  VolCons(1)        NLM western  edge boundary volume conservation.
          F  VolCons(2)        NLM southern edge boundary volume conservation.
          F  VolCons(3)        NLM eastern  edge boundary volume conservation.
          F  VolCons(4)        NLM northern edge boundary volume conservation.
     10.000  T0                Background potential temperature (C) constant.
     30.000  S0                Background salinity (PSU) constant.
   1027.000  R0                Background density (kg/m3) used in linear Equation
                                 of State.
 1.7000E-04  Tcoef             Thermal expansion coefficient (1/Celsius).
 7.6000E-04  Scoef             Saline contraction coefficient (1/PSU).
      1.000  gamma2            Slipperiness variable: free-slip (1.0) or 
                                                      no-slip (-1.0).
          T  LuvSrc            Turning ON  momentum point Sources/Sinks.
          F  LwSrc             Turning OFF volume influx point Sources/Sinks.
          T  LtracerSrc(01)    Turning ON  point Sources/Sinks on tracer 01: temp
          T  LtracerSrc(02)    Turning ON  point Sources/Sinks on tracer 02: salt
          T  LsshCLM           Turning ON  processing of SSH climatology.
          T  Lm2CLM            Turning ON  processing of 2D momentum climatology.
          T  Lm3CLM            Turning ON  processing of 3D momentum climatology.
          T  LtracerCLM(01)    Turning ON  processing of climatology tracer 01: temp
          T  LtracerCLM(02)    Turning ON  processing of climatology tracer 02: salt
          T  LnudgeM2CLM       Turning ON  nudging of 2D momentum climatology.
          T  LnudgeM3CLM       Turning ON  nudging of 3D momentum climatology.
          T  LnudgeTCLM(01)    Turning ON  nudging of climatology tracer 01: temp
          T  LnudgeTCLM(02)    Turning ON  nudging of climatology tracer 02: salt

          T  Hout(idFsur)      Write out free-surface.
          T  Hout(idUvel)      Write out 3D U-momentum component.
          T  Hout(idVvel)      Write out 3D V-momentum component.
          T  Hout(idWvel)      Write out W-momentum component.
          T  Hout(idOvel)      Write out omega vertical velocity.
          T  Hout(idTvar)      Write out tracer 01: temp
          T  Hout(idTvar)      Write out tracer 02: salt
          T  Hout(idpthR)      Write out time-varying dephts of RHO-points.
          T  Hout(idpthU)      Write out time-varying dephts of U-points.
          T  Hout(idpthV)      Write out time-varying dephts of V-points.
          T  Hout(idpthW)      Write out time-varying dephts of W-points.
          T  Hout(idVvis)      Write out vertical viscosity: AKv.
          T  Hout(idTdif)      Write out vertical diffusion: AKt(itemp).
          T  Hout(idMtke)      Write out turbulent kinetic energy.

 Output/Input Files:

             Output Restart File:  oil_rst_off.nc
        Prefix for History Files:  oil_his_off
                 Input Grid File:  ../oil_03/oil_03_grd.nc
        Input Sources/Sinks File:  ../oil_03/oil_03_river.nc
           Input Forcing File 01:  INPUT/oil_frc_off.nc
          Input Climatology File:  INPUT/oil_clm_off.nc
         Input Boundary File 01:  INPUT/oil_03_bdy.nc
         Biology Parameters File:  ./External/bio_Fennel.in

 Tile partition information for Grid 01:  0250x0126x0050  tiling: 004x002

     tile     Istr     Iend     Jstr     Jend     Npts

 Number of tracers:           14
        0        1       62        1       63   195300
        1       63      125        1       63   198450
        2      126      188        1       63   198450
        3      189      250        1       63   195300
        4        1       62       64      126   195300
        5       63      125       64      126   198450
        6      126      188       64      126   198450
        7      189      250       64      126   195300

 Tile minimum and maximum fractional coordinates for Grid 01:
   (interior points only)

     tile     Xmin     Xmax     Ymin     Ymax     grid

        0     0.50    62.50     0.50    63.50  RHO-points
        1    62.50   125.50     0.50    63.50  RHO-points
        2   125.50   188.50     0.50    63.50  RHO-points
        3   188.50   250.50     0.50    63.50  RHO-points
        4     0.50    62.50    63.50   126.50  RHO-points
        5    62.50   125.50    63.50   126.50  RHO-points
        6   125.50   188.50    63.50   126.50  RHO-points
        7   188.50   250.50    63.50   126.50  RHO-points

        0     1.00    62.50     0.50    63.50    U-points
        1    62.50   125.50     0.50    63.50    U-points
        2   125.50   188.50     0.50    63.50    U-points
        3   188.50   250.00     0.50    63.50    U-points
        4     1.00    62.50    63.50   126.50    U-points
        5    62.50   125.50    63.50   126.50    U-points
        6   125.50   188.50    63.50   126.50    U-points
        7   188.50   250.00    63.50   126.50    U-points

        0     0.50    62.50     1.00    63.50    V-points
        1    62.50   125.50     1.00    63.50    V-points
        2   125.50   188.50     1.00    63.50    V-points
        3   188.50   250.50     1.00    63.50    V-points
        4     0.50    62.50    63.50   126.00    V-points
        5    62.50   125.50    63.50   126.00    V-points
        6   125.50   188.50    63.50   126.00    V-points
        7   188.50   250.50    63.50   126.00    V-points

 Maximum halo size in XI and ETA directions:

               HaloSizeI(1) =     150
               HaloSizeJ(1) =     150
                TileSide(1) =      69
                TileSize(1) =    4761


 Lateral Boundary Conditions: NLM
 ============================

 Variable               Grid  West Edge    South Edge   East Edge    North Edge
 ---------              ----  ----------   ----------   ----------   ----------

 zeta                     1   Chapman Imp  Chapman Imp  Chapman Imp  Closed

 ubar                     1   Flather      Flather      Flather      Closed

 vbar                     1   Flather      Flather      Flather      Closed

 u                        1   Radiation    Radiation    Radiation    Closed

 v                        1   Radiation    Radiation    Radiation    Closed

 temp                     1   Radiation    Radiation    Radiation    Closed

 salt                     1   Radiation    Radiation    Radiation    Closed

 NO3                      1   Radiation    Radiation    Radiation    Closed

 NH4                      1   Radiation    Radiation    Radiation    Closed

 chlorophyll              1   Radiation    Radiation    Radiation    Closed

 phytoplankton            1   Radiation    Radiation    Radiation    Closed

 zooplankton              1   Radiation    Radiation    Radiation    Closed

 LdetritusN               1   Radiation    Radiation    Radiation    Closed

 SdetritusN               1   Radiation    Radiation    Radiation    Closed

 LdetritusC               1   Radiation    Radiation    Radiation    Closed

 SdetritusC               1   Radiation    Radiation    Radiation    Closed

 TIC                      1   Radiation    Radiation    Radiation    Closed

 Talk                     1   Radiation    Radiation    Radiation    Closed

 oxyg                     1   Radiation    Radiation    Radiation    Closed

 tke                      1   Radiation    Radiation    Radiation    Closed

 Activated C-preprocessing Options:

 oil_offline         Offline oil
 ANA_BIOLOGY         Analytical biology initial conditions.
 ANA_BPFLUX          Analytical bottom passive tracers fluxes.
 ANA_INITIAL         Analytical initial conditions.
 ANA_NUDGCOEF        Analytical spatially varying nudging time-scales.
 ANA_SPFLUX          Analytical surface passive tracer fluxes.
 ASSUMED_SHAPE       Using assumed-shape arrays.
 BIO_FENNEL          Fennel et al. (2006) nitrogen-based model.
 BIO_SEDIMENT        Restore fallen particulate material to the nutrient pool.
 !BOUNDARY_ALLGATHER Using mpi_allreduce in mp_boundary routine.
 CARBON              Add Carbon constituents.
 !COLLECT_ALL...     Using mpi_isend/mpi_recv in mp_collect routine.
 CURVGRID            Orthogonal curvilinear grid.
 DENITRIFICATION     Add denitrification processes.
 DOUBLE_PRECISION    Double precision arithmetic.
 GLS_MIXING          Generic Length-Scale turbulence closure.
 KANTHA_CLAYSON      Kantha and Clayson stability function formulation.
 MASKING             Land/Sea masking.
 MIX_S_UV            Mixing of momentum along constant S-surfaces.
 MPI                 MPI distributed-memory configuration.
 NONLINEAR           Nonlinear Model.
 !NONLIN_EOS         Linear Equation of State for seawater.
 N2S2_HORAVG         Horizontal smoothing of buoyancy and shear.
 OCLIMATOLOGY        Processing omega climatology data.
 !OCMIP_OXYGEN_SC    Schmidt number from Wanninkhof (1992).
 OXYGEN              Add oxygen dynamics.
 POWER_LAW           Power-law shape time-averaging barotropic filter.
 PRSGRD31            Standard density Jacobian formulation (Song, 1998).
 PROFILE             Time profiling activated .
 K_GSCHEME           Third-order upstream advection of TKE fields.
 REDUCE_ALLGATHER    Using mpi_allgather in mp_reduce routine.
 RI_SPLINES          Parabolic Spline Reconstruction for Richardson Number.
 RHO_SURF            Include difference between rho0 and surface density.
 !RST_SINGLE         Double precision fields in restart NetCDF file.
 SOLVE3D             Solving 3D Primitive Equations.
 SPLINES_VDIFF       Parabolic Spline Reconstruction for Vertical Diffusion.
 SPLINES_VVISC       Parabolic Spline Reconstruction for Vertical Viscosity.
 !TALK_NONCONSERV    Alkalinity is passive and unaffected by nitrate or ammonium.
 TS_C4HADVECTION     Fourth-order centered horizontal advection of tracers.
 TS_C4VADVECTION     Fourth-order centered vertical advection of tracers.
 UV_QDRAG            Quadratic bottom stress.
 UV_VIS2             Harmonic mixing of momentum.
 VAR_RHO_2D          Variable density barotropic mode.

 Process Information:

 Node #  0 (pid=   53543) is active.
 Node #  1 (pid=   53544) is active.
 Node #  2 (pid=   53545) is active.
 Node #  3 (pid=   53546) is active.
 Node #  4 (pid=   53547) is active.
 Node #  5 (pid=   53548) is active.
 Node #  6 (pid=   53549) is active.
 Node #  7 (pid=   53550) is active.

 INITIAL: Configuring and initializing forward nonlinear model ...
 *******

    GET_GRID    - bathymetry at RHO-points: h
                   (Grid = 01, File: ../oil_03/oil_03_grd.nc)
                   (Min =  4.00000000E+00 Max =  3.43749950E+03)
    GET_GRID    - Coriolis parameter at RHO-points: f
                   (Grid = 01, File: ../oil_03/oil_03_grd.nc)
                   (Min =  6.29981039E-05 Max =  7.43933936E-05)
    GET_GRID    - reciprocal XI-grid spacing: pm
                   (Grid = 01, File: ../oil_03/oil_03_grd.nc)
                   (Min =  2.49292567E-04 Max =  2.61409524E-04)
    GET_GRID    - reciprocal ETA-grid spacing: pn
                   (Grid = 01, File: ../oil_03/oil_03_grd.nc)
                   (Min =  2.24820144E-04 Max =  2.24820144E-04)
    GET_GRID    - x-location of RHO-points: x-rho
                   (Grid = 01, File: ../oil_03/oil_03_grd.nc)
                   (Min =  1.00000000E+37 Max = -1.00000000E+37)
    GET_GRID    - y-location of RHO-points: y_rho
                   (Grid = 01, File: ../oil_03/oil_03_grd.nc)
                   (Min =  1.00000000E+37 Max = -1.00000000E+37)
    GET_GRID    - x-location of PSI-points: x_psi
                   (Grid = 01, File: ../oil_03/oil_03_grd.nc)
                   (Min =  1.00000000E+37 Max = -1.00000000E+37)
    GET_GRID    - y-location of PSI-points: y-psi
                   (Grid = 01, File: ../oil_03/oil_03_grd.nc)
                   (Min =  1.00000000E+37 Max = -1.00000000E+37)
    GET_GRID    - x-location of U-points: x_u
                   (Grid = 01, File: ../oil_03/oil_03_grd.nc)
                   (Min =  1.00000000E+37 Max = -1.00000000E+37)
    GET_GRID    - y-location of U-points: y_u
                   (Grid = 01, File: ../oil_03/oil_03_grd.nc)
                   (Min =  1.00000000E+37 Max = -1.00000000E+37)
    GET_GRID    - x-location of V-points: x_v
                   (Grid = 01, File: ../oil_03/oil_03_grd.nc)
                   (Min =  1.00000000E+37 Max = -1.00000000E+37)
    GET_GRID    - y-location of V-points: y_v
                   (Grid = 01, File: ../oil_03/oil_03_grd.nc)
                   (Min =  1.00000000E+37 Max = -1.00000000E+37)
    GET_GRID    - latitude of RHO-points lat_rho
                   (Grid = 01, File: ../oil_03/oil_03_grd.nc)
                   (Min =  2.56000004E+01 Max =  3.06800004E+01)
    GET_GRID    - longitude of RHO-points: lon_rho
                   (Grid = 01, File: ../oil_03/oil_03_grd.nc)
                   (Min = -9.40000000E+01 Max = -8.39600000E+01)
    GET_GRID    - latitude of PSI-points lat_psi
                   (Grid = 01, File: ../oil_03/oil_03_grd.nc)
                   (Min =  2.56200004E+01 Max =  3.06600004E+01)
    GET_GRID    - longitude of PSI-points: lon_psi
                   (Grid = 01, File: ../oil_03/oil_03_grd.nc)
                   (Min = -9.39800000E+01 Max = -8.39800000E+01)
    GET_GRID    - latitude of U-points: lat_u
                   (Grid = 01, File: ../oil_03/oil_03_grd.nc)
                   (Min =  2.56000004E+01 Max =  3.06800004E+01)
    GET_GRID    - longitude of U-points: lon_u
                   (Grid = 01, File: ../oil_03/oil_03_grd.nc)
                   (Min = -9.39800000E+01 Max = -8.39800000E+01)
    GET_GRID    - latitude of V-points: lat_v
                   (Grid = 01, File: ../oil_03/oil_03_grd.nc)
                   (Min =  2.56200004E+01 Max =  3.06600004E+01)
    GET_GRID    - longitude of V-points: lon_v
                   (Grid = 01, File: ../oil_03/oil_03_grd.nc)
                   (Min = -9.40000000E+01 Max = -8.39600000E+01)
    GET_GRID    - mask on RHO-points: mask_rho
                   (Grid = 01, File: ../oil_03/oil_03_grd.nc)
                   (Min =  0.00000000E+00 Max =  1.00000000E+00)
    GET_GRID    - mask on U-points: mask_u
                   (Grid = 01, File: ../oil_03/oil_03_grd.nc)
                   (Min =  0.00000000E+00 Max =  1.00000000E+00)
    GET_GRID    - mask on V-points: mask_v
                   (Grid = 01, File: ../oil_03/oil_03_grd.nc)
                   (Min =  0.00000000E+00 Max =  1.00000000E+00)
    GET_GRID    - mask on PSI-points: mask_psi
                   (Grid = 01, File: ../oil_03/oil_03_grd.nc)
                   (Min =  0.00000000E+00 Max =  1.00000000E+00)
    GET_GRID    - angle between XI-axis and EAST: angler
                   (Grid = 01, File: ../oil_03/oil_03_grd.nc)
                   (Min =  0.00000000E+00 Max =  0.00000000E+00)

 Vertical S-coordinate System, Grid 01:

 level   S-coord     Cs-curve   Z   at hmin       at hc    half way     at hmax

    50   0.0000000   0.0000000        0.000       0.000       0.000       0.000
    49  -0.0100000  -0.0002022       -0.035      -0.153      -0.637      -0.986
    48  -0.0204082  -0.0008421       -0.072      -0.319      -2.026      -3.477
    47  -0.0312245  -0.0019710       -0.111      -0.498      -4.254      -7.645
    46  -0.0424490  -0.0036421       -0.152      -0.691      -7.411     -13.674
    45  -0.0540816  -0.0059101       -0.194      -0.900     -11.590     -21.749
    44  -0.0661224  -0.0088316       -0.238      -1.124     -16.886     -32.062
    43  -0.0785714  -0.0124645       -0.283      -1.366     -23.397     -44.813
    42  -0.0914286  -0.0168682       -0.331      -1.624     -31.224     -60.202
    41  -0.1046939  -0.0221035       -0.380      -1.902     -40.470     -78.437
    40  -0.1183673  -0.0282318       -0.431      -2.199     -51.238     -99.728
    39  -0.1324490  -0.0353159       -0.484      -2.516     -63.634    -124.287
    38  -0.1469388  -0.0434185       -0.539      -2.855     -77.765    -152.330
    37  -0.1618367  -0.0526031       -0.596      -3.217     -93.738    -184.072
    36  -0.1771429  -0.0629326       -0.655      -3.601    -111.659    -219.727
    35  -0.1928571  -0.0744693       -0.716      -4.010    -131.634    -259.509
    34  -0.2089796  -0.0872744       -0.779      -4.444    -153.766    -303.625
    33  -0.2255102  -0.1014071       -0.844      -4.904    -178.156    -352.278
    32  -0.2424490  -0.1169237       -0.911      -5.391    -204.898    -405.658
    31  -0.2597959  -0.1338772       -0.980      -5.905    -234.082    -463.948
    30  -0.2775510  -0.1523156       -1.051      -6.448    -265.790    -527.309
    29  -0.2957143  -0.1722810       -1.125      -7.020    -300.092    -595.887
    28  -0.3142857  -0.1938080       -1.200      -7.621    -337.047    -669.798
    27  -0.3332653  -0.2169221       -1.278      -8.253    -376.699    -749.130
    26  -0.3526531  -0.2416380       -1.358      -8.914    -419.072    -833.932
    25  -0.3724490  -0.2679571       -1.441      -9.606    -464.168    -924.210
    24  -0.3926531  -0.2958656       -1.525     -10.328    -511.964   -1019.916
    23  -0.4132653  -0.3253319       -1.612     -11.079    -562.408   -1120.943
    22  -0.4342857  -0.3563041       -1.700     -11.859    -615.409   -1227.114
    21  -0.4557143  -0.3887069       -1.791     -12.666    -670.843   -1338.173
    20  -0.4775510  -0.4224393       -1.884     -13.500    -728.537   -1453.774
    19  -0.4997959  -0.4573718       -1.979     -14.358    -788.273   -1573.477
    18  -0.5224490  -0.4933440       -2.076     -15.237    -849.780   -1696.735
    17  -0.5455102  -0.5301629       -2.175     -16.135    -912.730   -1822.891
    16  -0.5689796  -0.5676014       -2.275     -17.049    -976.741   -1951.171
    15  -0.5928571  -0.6053985       -2.377     -17.974   -1041.369   -2080.684
    14  -0.6171429  -0.6432602       -2.481     -18.906   -1106.120   -2210.430
    13  -0.6418367  -0.6808623       -2.586     -19.840   -1170.443   -2339.303
    12  -0.6669388  -0.7178554       -2.692     -20.772   -1233.748   -2466.113
    11  -0.6924490  -0.7538718       -2.799     -21.695   -1295.414   -2589.607
    10  -0.7183673  -0.7885351       -2.906     -22.604   -1354.803   -2708.502
     9  -0.7446939  -0.8214722       -3.015     -23.492   -1411.284   -2821.527
     8  -0.7714286  -0.8523280       -3.124     -24.356   -1464.258   -2927.471
     7  -0.7985714  -0.8807813       -3.233     -25.190   -1513.180   -3025.240
     6  -0.8261224  -0.9065619       -3.342     -25.990   -1557.594   -3113.914
     5  -0.8540816  -0.9294674       -3.452     -26.753   -1597.158   -3192.802
     4  -0.8824490  -0.9493782       -3.561     -27.477   -1631.669   -3261.497
     3  -0.9112245  -0.9662678       -3.671     -28.162   -1661.082   -3319.908
     2  -0.9404082  -0.9802083       -3.780     -28.809   -1685.520   -3368.282
     1  -0.9700000  -0.9913678       -3.890     -29.421   -1705.266   -3407.191
     0  -1.0000000  -1.0000000       -4.000     -30.000   -1720.750   -3437.500

 Time Splitting Weights for Grid 01:    ndtfast =  15    nfast =  22
 ==================================

    Primary            Secondary            Accumulated to Current Step

  1-0.0006740978872509 0.0666666666666667-0.0006740978872509 0.0666666666666667
  2-0.0001913161153518 0.0667116065258167-0.0008654140026027 0.1333782731924834
  3 0.0014472038369421 0.0667243609335069 0.0005817898343395 0.2001026341259903
  4 0.0042370228855824 0.0666278806777107 0.0048188127199218 0.2667305148037010
  5 0.0081665994120431 0.0663454124853385 0.0129854121319649 0.3330759272890396
  6 0.0132119623624627 0.0658009725245357 0.0261973744944276 0.3988768998135752
  7 0.0193298623751124 0.0649201750337048 0.0455272368695400 0.4637970748472801
  8 0.0264494009361902 0.0636315175420307 0.0719766378057303 0.5274285923893107
  9 0.0344621375639418 0.0618682241462847 0.1064387753696720 0.5892968165355954
 10 0.0432106750211074 0.0595707483086885 0.1496494503907794 0.6488675648442840
 11 0.0524757225556949 0.0566900366406147 0.2021251729464743 0.7055576014848987
 12 0.0619616371700794 0.0531916551369017 0.2640868101165537 0.7587492566218004
 13 0.0712804429184289 0.0490608793255631 0.3353672530349826 0.8078101359473635
 14 0.0799343282324558 0.0443088497976678 0.4153015812674384 0.8521189857450313
 15 0.0872966212754959 0.0389798945821708 0.5025982025429343 0.8910988803272021
 16 0.0925912433249121 0.0331601198304711 0.5951894458678464 0.9242590001576731
 17 0.0948706401828253 0.0269873702754769 0.6900600860506717 0.9512463704331501
 18 0.0929921916151718 0.0206626609299552 0.7830522776658435 0.9719090313631054
 19 0.0855930988190858 0.0144631814889438 0.8686453764849293 0.9863722128520491
 20 0.0710637499186094 0.0087569749010047 0.9397091264035388 0.9951291877530538
 21 0.0475195634887281 0.0040193915730974 0.9872286898922669 0.9991485793261512
 22 0.0127713101077333 0.0008514206738489 1.0000000000000002 1.0000000000000000

 ndtfast, nfast =   15  22   nfast/ndtfast =  1.46667

 Centers of gravity and integrals (values must be 1, 1, approx 1/2, 1, 1):

    1.000000000000 1.070450639131 0.535225319565 1.000000000000 1.000000000000

 Power filter parameters, Fgamma, gamma =  0.28400   0.09467

 Metrics information for Grid 01:
 ===============================

 Minimum X-grid spacing, DXmin =  3.82541533E+00 km
 Maximum X-grid spacing, DXmax =  4.01135105E+00 km
 Minimum Y-grid spacing, DYmin =  4.44800000E+00 km
 Maximum Y-grid spacing, DYmax =  4.44800000E+00 km
 Minimum Z-grid spacing, DZmin =  3.53892736E-02 m
 Maximum Z-grid spacing, DZmax =  1.29745715E+02 m

 Minimum barotropic Courant Number =  2.85286950E-03
 Maximum barotropic Courant Number =  8.21937792E-02
 Maximum Coriolis   Courant Number =  1.48436480E-03

 Set up nudging towards data time-scale coefficients
 Set up nudging towards data time-scale coefficients
 Set up nudging towards data time-scale coefficients
 Set up nudging towards data time-scale coefficients
 Set up nudging towards data time-scale coefficients
 Set up nudging towards data time-scale coefficients
 Set up nudging towards data time-scale coefficients
 Set up nudging towards data time-scale coefficients
    ANA_INITIAL - vertically integrated u-momentum component: ubar
                   (Grid = 01, Min =  0.00000000E+00 Max =  0.00000000E+00)
    ANA_INITIAL - vertically integrated v-momentum component: vbar
                   (Grid = 01, Min =  0.00000000E+00 Max =  0.00000000E+00)
    ANA_INITIAL - free-surface: zeta
                   (Grid = 01, Min =  0.00000000E+00 Max =  0.00000000E+00)
    ANA_INITIAL - u-momentum component: u
                   (Grid = 01, Min =  0.00000000E+00 Max =  0.00000000E+00)
    ANA_INITIAL - v-momentum component: v
                   (Grid = 01, Min =  0.00000000E+00 Max =  0.00000000E+00)
    ANA_INITIAL - potential temperature: temp
                   (Grid = 01, Min =  1.00000000E+01 Max =  1.00000000E+01)
    ANA_INITIAL - salinity: salt
                   (Grid = 01, Min =  0.00000000E+00 Max =  0.00000000E+00)
    ANA_BIOLOGY - nitrate concentration: NO3
                   (Grid = 01, Min =  1.68930556E+01 Max =  1.68930556E+01)
    ANA_BIOLOGY - ammonium concentration: NH4
                   (Grid = 01, Min =  1.00000000E-01 Max =  1.00000000E-01)
    ANA_BIOLOGY - chlorophyll concentration: chlorophyll
                   (Grid = 01, Min =  2.00000000E-02 Max =  2.00000000E-02)
    ANA_BIOLOGY - phytoplankton concentration: phytoplankton
                   (Grid = 01, Min =  8.00000000E-02 Max =  8.00000000E-02)
    ANA_BIOLOGY - zooplankton concentration: zooplankton
                   (Grid = 01, Min =  6.00000000E-02 Max =  6.00000000E-02)
    ANA_BIOLOGY - large fraction nitrogen detritus concentration: LdetritusN
                   (Grid = 01, Min =  2.00000000E-02 Max =  2.00000000E-02)
    ANA_BIOLOGY - small fraction nitrogen detritus concentration: SdetritusN
                   (Grid = 01, Min =  4.00000000E-02 Max =  4.00000000E-02)
    ANA_BIOLOGY - large fraction carbon detritus concentration: LdetritusC
                   (Grid = 01, Min =  2.00000000E-03 Max =  2.00000000E-03)
    ANA_BIOLOGY - small fraction carbon detritus concentration: SdetritusC
                   (Grid = 01, Min =  6.00000000E-02 Max =  6.00000000E-02)
    ANA_BIOLOGY - total inorganic carbon: TIC
                   (Grid = 01, Min =  2.10000000E+03 Max =  2.10000000E+03)
    ANA_BIOLOGY - total alkalinity: Talk
                   (Grid = 01, Min =  2.35000000E+03 Max =  2.35000000E+03)
    ANA_BIOLOGY - dissolved oxygen concentration: oxyg
                   (Grid = 01, Min =  4.46229362E+02 Max =  4.46229362E+02)
    GET_NGFLD   - river runoff  XI-positions at RHO-points
                   (Grid = 01, Min =  4.00000000E+00 Max =  2.46000000E+02)
    GET_NGFLD   - river runoff ETA-positions at RHO-points
                   (Grid = 01, Min =  8.80000000E+01 Max =  1.26000000E+02)
    GET_NGFLD   - river runoff direction
                   (Grid = 01, Min =  0.00000000E+00 Max =  1.00000000E+00)
    GET_NGFLD   - river runoff mass transport vertical profile
                   (Grid = 01, Min =  4.00000000E-04 Max =  3.96000000E-02)
    GET_NGFLD   - river runoff mass transport,                     2010-04-21 00:00:00.00
                   (Grid= 01, Rec=0000002, Index=2, File: oil_03_river.nc)
                   (Tmin=          0.0000 Tmax=         92.0000)      t =          1.0000
                   (Min = -1.00242002E+04 Max =  4.59964058E+03)
    GET_NGFLD   - river runoff potential temperature,              2010-04-21 00:00:00.00
                   (Grid= 01, Rec=0000002, Index=2, File: oil_03_river.nc)
                   (Tmin=          0.0000 Tmax=         92.0000)      t =          1.0000
                   (Min =  2.04152050E+01 Max =  2.54689713E+01)
    GET_NGFLD   - river runoff salinity,                           2010-04-21 00:00:00.00
                   (Grid= 01, Rec=0000002, Index=2, File: oil_03_river.nc)
                   (Tmin=          0.0000 Tmax=         92.0000)      t =          1.0000
                   (Min =  3.00000000E+00 Max =  3.00000000E+00)
    GET_2DFLD   - surface u-momentum stress,                       2010-04-22 00:00:00.00
                   (Grid=01, Rec=0000001, Index=1, File: oil_frc_off.nc)
                   (Tmin=          1.2500 Tmax=         12.7500)      t =          2.0000
                   (Min = -2.25085129E-05 Max =  2.39234054E-05)      regrid = F
    GET_2DFLD   - surface v-momentum stress,                       2010-04-22 00:00:00.00
                   (Grid=01, Rec=0000001, Index=1, File: oil_frc_off.nc)
                   (Tmin=          1.2500 Tmax=         12.7500)      t =          2.0000
                   (Min = -2.20070234E-05 Max =  2.17338851E-05)      regrid = F
    GET_2DFLD   - solar shortwave radiation flux,                  2010-04-21 23:00:00.00
                   (Grid=01, Rec=0000048, Index=1, File: oil_frc_off.nc)
                   (Tmin=          0.0000 Tmax=         93.0000)      t =          1.9583
                   (Min =  1.61649189E-05 Max =  1.14600362E-04)      regrid = F
    GET_2DFLD   - surface net heat flux,                           2010-04-22 00:00:00.00
                   (Grid=01, Rec=0000001, Index=1, File: oil_frc_off.nc)
                   (Tmin=          1.2500 Tmax=         12.7500)      t =          2.0000
                   (Min = -4.29952433E-05 Max =  2.90230919E-05)      regrid = F
    GET_2DFLD   - bottom net heat flux,                            2010-04-21 23:00:00.00
                   (Grid=01, Rec=0000048, Index=1, File: oil_frc_off.nc)
                   (Tmin=          0.0000 Tmax=         93.0000)      t =          1.9583
                   (Min =  0.00000000E+00 Max =  0.00000000E+00)      regrid = F
    GET_NGFLD   - free-surface western boundary condition,         2010-04-21 00:00:00.00
                   (Grid= 01, Rec=0000002, Index=2, File: oil_03_bdy.nc)
                   (Tmin=          0.0000 Tmax=         92.0000)      t =          1.0000
                   (Min = -2.74000013E-01 Max = -8.10000305E-02)
    GET_NGFLD   - free-surface eastern boundary condition,         2010-04-21 00:00:00.00
                   (Grid= 01, Rec=0000002, Index=2, File: oil_03_bdy.nc)
                   (Tmin=          0.0000 Tmax=         92.0000)      t =          1.0000
                   (Min = -1.96999995E-01 Max = -1.22499477E-01)
    GET_NGFLD   - free-surface southern boundary condition,        2010-04-21 00:00:00.00
                   (Grid= 01, Rec=0000002, Index=2, File: oil_03_bdy.nc)
                   (Tmin=          0.0000 Tmax=         92.0000)      t =          1.0000
                   (Min = -4.29000020E-01 Max =  2.96999465E-01)
    GET_NGFLD   - 2D u-momentum western boundary condition,        2010-04-21 00:00:00.00
                   (Grid= 01, Rec=0000002, Index=2, File: oil_03_bdy.nc)
                   (Tmin=          0.0000 Tmax=         92.0000)      t =          1.0000
                   (Min = -1.00183919E-01 Max =  2.37548858E-01)
    GET_NGFLD   - 2D v-momentum western boundary condition,        2010-04-21 00:00:00.00
                   (Grid= 01, Rec=0000002, Index=2, File: oil_03_bdy.nc)
                   (Tmin=          0.0000 Tmax=         92.0000)      t =          1.0000
                   (Min = -5.08535691E-02 Max =  2.45240051E-02)
    GET_NGFLD   - 2D u-momentum eastern boundary condition,        2010-04-21 00:00:00.00
                   (Grid= 01, Rec=0000002, Index=2, File: oil_03_bdy.nc)
                   (Tmin=          0.0000 Tmax=         92.0000)      t =          1.0000
                   (Min = -4.09290232E-02 Max =  9.20293331E-02)
    GET_NGFLD   - 2D v-momentum eastern boundary condition,        2010-04-21 00:00:00.00
                   (Grid= 01, Rec=0000002, Index=2, File: oil_03_bdy.nc)
                   (Tmin=          0.0000 Tmax=         92.0000)      t =          1.0000
                   (Min = -1.01989433E-01 Max =  5.18996231E-02)
    GET_NGFLD   - 2D u-momentum southern boundary condition,       2010-04-21 00:00:00.00
                   (Grid= 01, Rec=0000002, Index=2, File: oil_03_bdy.nc)
                   (Tmin=          0.0000 Tmax=         92.0000)      t =          1.0000
                   (Min = -2.55609840E-01 Max =  2.44240221E-02)
    GET_NGFLD   - 2D v-momentum southern boundary condition,       2010-04-21 00:00:00.00
                   (Grid= 01, Rec=0000002, Index=2, File: oil_03_bdy.nc)
                   (Tmin=          0.0000 Tmax=         92.0000)      t =          1.0000
                   (Min = -2.01190680E-01 Max =  1.73273489E-01)
    GET_2DFLD   - sea surface height climatology,                  2010-04-21 18:00:00.00
                   (Grid=01, Rec=0000003, Index=1, File: oil_clm_off.nc)
                   (Tmin=          1.2500 Tmax=         12.7500)      t =          1.7500
                   (Min = -3.46117973E-01 Max =  5.72944105E-01)      regrid = F
    GET_2DFLD   - vertically integrated u-momentum climatolog,     2010-04-21 18:00:00.00
                   (Grid=01, Rec=0000003, Index=1, File: oil_clm_off.nc)
                   (Tmin=          1.2500 Tmax=         12.7500)      t =          1.7500
                   (Min = -3.33506227E-01 Max =  2.84254044E-01)      regrid = F
    GET_2DFLD   - vertically integrated v-momentum climatolog,     2010-04-21 18:00:00.00
                   (Grid=01, Rec=0000003, Index=1, File: oil_clm_off.nc)
                   (Tmin=          1.2500 Tmax=         12.7500)      t =          1.7500
                   (Min = -6.57970309E-01 Max =  2.82676637E-01)      regrid = F
    GET_3DFLD   - u-momentum component climatology,                2010-04-21 18:00:00.00
                   (Grid=01, Rec=0000003, Index=1, File: oil_clm_off.nc)
                   (Tmin=          1.2500 Tmax=         12.7500)      t =          1.7500
                   (Min = -1.17141509E+00 Max =  1.77669358E+00)
    GET_3DFLD   - v-momentum component climatology,                2010-04-21 18:00:00.00
                   (Grid=01, Rec=0000003, Index=1, File: oil_clm_off.nc)
                   (Tmin=          1.2500 Tmax=         12.7500)      t =          1.7500
                   (Min = -2.94503069E+00 Max =  1.67232692E+00)
    GET_3DFLD   - potential temperature climatology,               2010-04-21 18:00:00.00
                   (Grid=01, Rec=0000003, Index=1, File: oil_clm_off.nc)
                   (Tmin=          1.2500 Tmax=         12.7500)      t =          1.7500
                   (Min =  4.15988255E+00 Max =  2.72941837E+01)
    GET_3DFLD   - salinity climatology,                            2010-04-21 18:00:00.00
                   (Grid=01, Rec=0000003, Index=1, File: oil_clm_off.nc)
                   (Tmin=          1.2500 Tmax=         12.7500)      t =          1.7500
                   (Min =  1.73795438E+00 Max =  3.71509895E+01)
    GET_3DFLD   - S-coordinate vertical momentum climatology,      2010-04-21 18:00:00.00
                   (Grid=01, Rec=0000003, Index=1, File: oil_clm_off.nc)
                   (Tmin=          1.2500 Tmax=         12.7500)      t =          1.7500
                   (Min = -6.70416001E-03 Max =  1.07549271E-02)

 Basin information for Grid 01:

 Maximum grid stiffness ratios:  rx0 =   5.128542E-01 (Beckmann and Haidvogel)
                                 rx1 =   4.472169E+01 (Haney)

 Initial domain volumes:  TotVolume =  6.2438834811E+14 m3
                         MinCellVol =  6.0266255720E+05 m3
                         MaxCellVol =  2.3129041747E+09 m3
                            Max/Min =  3.8378096450E+03

 NL ROMS/TOMS: started time-stepping: (Grid: 01 TimeSteps: 000000000001 - 000000028800)

    GET_NGFLD   - river runoff mass transport,                     2010-04-22 00:00:00.00
                   (Grid= 01, Rec=0000003, Index=1, File: oil_03_river.nc)
                   (Tmin=          0.0000 Tmax=         92.0000)      t =          2.0000
                   (Min = -1.01940996E+04 Max =  4.64934615E+03)
    GET_NGFLD   - river runoff potential temperature,              2010-04-22 00:00:00.00
                   (Grid= 01, Rec=0000003, Index=1, File: oil_03_river.nc)
                   (Tmin=          0.0000 Tmax=         92.0000)      t =          2.0000
                   (Min =  2.03943005E+01 Max =  2.43826561E+01)
    GET_NGFLD   - river runoff salinity,                           2010-04-22 00:00:00.00
                   (Grid= 01, Rec=0000003, Index=1, File: oil_03_river.nc)
                   (Tmin=          0.0000 Tmax=         92.0000)      t =          2.0000
                   (Min =  3.00000000E+00 Max =  3.00000000E+00)
    GET_2DFLD   - surface u-momentum stress,                       2010-04-29 12:00:00.00
                   (Grid=01, Rec=0000002, Index=2, File: oil_frc_off.nc)
                   (Tmin=          1.2500 Tmax=         12.7500)      t =          9.5000
                   (Min = -6.09391128E-05 Max =  9.25937713E-07)      regrid = F
    GET_2DFLD   - surface v-momentum stress,                       2010-04-29 12:00:00.00
                   (Grid=01, Rec=0000002, Index=2, File: oil_frc_off.nc)
                   (Tmin=          1.2500 Tmax=         12.7500)      t =          9.5000
                   (Min = -5.02998691E-05 Max =  2.97000609E-06)      regrid = F
    GET_2DFLD   - solar shortwave radiation flux,                  2010-04-22 00:00:00.00
                   (Grid=01, Rec=0000049, Index=2, File: oil_frc_off.nc)
                   (Tmin=          0.0000 Tmax=         93.0000)      t =          2.0000
                   (Min =  5.96318017E-06 Max =  5.73558133E-05)      regrid = F
    GET_2DFLD   - surface net heat flux,                           2010-04-29 12:00:00.00
                   (Grid=01, Rec=0000002, Index=2, File: oil_frc_off.nc)
                   (Tmin=          1.2500 Tmax=         12.7500)      t =          9.5000
                   (Min = -1.09473031E-04 Max = -2.99721225E-05)      regrid = F
    GET_2DFLD   - bottom net heat flux,                            2010-04-22 00:00:00.00
                   (Grid=01, Rec=0000049, Index=2, File: oil_frc_off.nc)
                   (Tmin=          0.0000 Tmax=         93.0000)      t =          2.0000
                   (Min =  0.00000000E+00 Max =  0.00000000E+00)      regrid = F
    GET_NGFLD   - free-surface western boundary condition,         2010-04-22 00:00:00.00
                   (Grid= 01, Rec=0000003, Index=1, File: oil_03_bdy.nc)
                   (Tmin=          0.0000 Tmax=         92.0000)      t =          2.0000
                   (Min =  0.00000000E+00 Max =  0.00000000E+00)
    GET_NGFLD   - free-surface eastern boundary condition,         2010-04-22 00:00:00.00
                   (Grid= 01, Rec=0000003, Index=1, File: oil_03_bdy.nc)
                   (Tmin=          0.0000 Tmax=         92.0000)      t =          2.0000
                   (Min =  0.00000000E+00 Max =  0.00000000E+00)
    GET_NGFLD   - free-surface southern boundary condition,        2010-04-22 00:00:00.00
                   (Grid= 01, Rec=0000003, Index=1, File: oil_03_bdy.nc)
                   (Tmin=          0.0000 Tmax=         92.0000)      t =          2.0000
                   (Min =  0.00000000E+00 Max =  0.00000000E+00)
    GET_NGFLD   - 2D u-momentum western boundary condition,        2010-04-22 00:00:00.00
                   (Grid= 01, Rec=0000003, Index=1, File: oil_03_bdy.nc)
                   (Tmin=          0.0000 Tmax=         92.0000)      t =          2.0000
                   (Min =  0.00000000E+00 Max =  0.00000000E+00)
    GET_NGFLD   - 2D v-momentum western boundary condition,        2010-04-22 00:00:00.00
                   (Grid= 01, Rec=0000003, Index=1, File: oil_03_bdy.nc)
                   (Tmin=          0.0000 Tmax=         92.0000)      t =          2.0000
                   (Min =  0.00000000E+00 Max =  0.00000000E+00)
    GET_NGFLD   - 2D u-momentum eastern boundary condition,        2010-04-22 00:00:00.00
                   (Grid= 01, Rec=0000003, Index=1, File: oil_03_bdy.nc)
                   (Tmin=          0.0000 Tmax=         92.0000)      t =          2.0000
                   (Min =  0.00000000E+00 Max =  0.00000000E+00)
    GET_NGFLD   - 2D v-momentum eastern boundary condition,        2010-04-22 00:00:00.00
                   (Grid= 01, Rec=0000003, Index=1, File: oil_03_bdy.nc)
                   (Tmin=          0.0000 Tmax=         92.0000)      t =          2.0000
                   (Min =  0.00000000E+00 Max =  0.00000000E+00)
    GET_NGFLD   - 2D u-momentum southern boundary condition,       2010-04-22 00:00:00.00
                   (Grid= 01, Rec=0000003, Index=1, File: oil_03_bdy.nc)
                   (Tmin=          0.0000 Tmax=         92.0000)      t =          2.0000
                   (Min =  0.00000000E+00 Max =  0.00000000E+00)
    GET_NGFLD   - 2D v-momentum southern boundary condition,       2010-04-22 00:00:00.00
                   (Grid= 01, Rec=0000003, Index=1, File: oil_03_bdy.nc)
                   (Tmin=          0.0000 Tmax=         92.0000)      t =          2.0000
                   (Min =  0.00000000E+00 Max =  0.00000000E+00)
    GET_2DFLD   - sea surface height climatology,                  2010-04-22 00:00:00.00
                   (Grid=01, Rec=0000004, Index=2, File: oil_clm_off.nc)
                   (Tmin=          1.2500 Tmax=         12.7500)      t =          2.0000
                   (Min = -3.30507964E-01 Max =  5.52641332E-01)      regrid = F
    GET_2DFLD   - vertically integrated u-momentum climatolog,     2010-04-22 00:00:00.00
                   (Grid=01, Rec=0000004, Index=2, File: oil_clm_off.nc)
                   (Tmin=          1.2500 Tmax=         12.7500)      t =          2.0000
                   (Min = -3.71865511E-01 Max =  3.01630586E-01)      regrid = F
    GET_2DFLD   - vertically integrated v-momentum climatolog,     2010-04-22 00:00:00.00
                   (Grid=01, Rec=0000004, Index=2, File: oil_clm_off.nc)
                   (Tmin=          1.2500 Tmax=         12.7500)      t =          2.0000
                   (Min = -6.52986586E-01 Max =  2.83293694E-01)      regrid = F
    GET_3DFLD   - u-momentum component climatology,                2010-04-22 00:00:00.00
                   (Grid=01, Rec=0000004, Index=2, File: oil_clm_off.nc)
                   (Tmin=          1.2500 Tmax=         12.7500)      t =          2.0000
                   (Min = -1.52505624E+00 Max =  1.67202675E+00)
    GET_3DFLD   - v-momentum component climatology,                2010-04-22 00:00:00.00
                   (Grid=01, Rec=0000004, Index=2, File: oil_clm_off.nc)
                   (Tmin=          1.2500 Tmax=         12.7500)      t =          2.0000
                   (Min = -2.92272377E+00 Max =  1.66867220E+00)
    GET_3DFLD   - potential temperature climatology,               2010-04-22 00:00:00.00
                   (Grid=01, Rec=0000004, Index=2, File: oil_clm_off.nc)
                   (Tmin=          1.2500 Tmax=         12.7500)      t =          2.0000
                   (Min =  4.16401052E+00 Max =  2.75417557E+01)
    GET_3DFLD   - salinity climatology,                            2010-04-22 00:00:00.00
                   (Grid=01, Rec=0000004, Index=2, File: oil_clm_off.nc)
                   (Tmin=          1.2500 Tmax=         12.7500)      t =          2.0000
                   (Min =  2.33639646E+00 Max =  3.75011139E+01)
    GET_3DFLD   - S-coordinate vertical momentum climatology,      2010-04-22 00:00:00.00
                   (Grid=01, Rec=0000004, Index=2, File: oil_clm_off.nc)
                   (Tmin=          1.2500 Tmax=         12.7500)      t =          2.0000
                   (Min = -7.52187660E-03 Max =  1.32808993E-02)

 TIME-STEP YYYY-MM-DD hh:mm:ss.ss  KINETIC_ENRG   POTEN_ENRG    TOTAL_ENRG    NET_VOLUME
                     C => (i,j,k)       Cu            Cv            Cw         Max Speed

         0 2010-04-22 00:00:00.00  0.000000E+00  1.240999E+04  1.240999E+04  6.247011E+14
                     (148,052,01)  1.762324-312  0.000000E+00  0.000000E+00  0.000000E+00
      DEF_HIS     - creating  history      file, Grid 01: oil_his_off_00001.nc
      WRT_HIS     - wrote history     fields (Index=1,1) in record = 0000001
    GET_NGFLD   - river runoff mass transport,                     2010-04-23 00:00:00.00
                   (Grid= 01, Rec=0000004, Index=2, File: oil_03_river.nc)
                   (Tmin=          0.0000 Tmax=         92.0000)      t =          3.0000
                   (Min = -1.03922998E+04 Max =  4.72664385E+03)
    GET_NGFLD   - river runoff potential temperature,              2010-04-23 00:00:00.00
                   (Grid= 01, Rec=0000004, Index=2, File: oil_03_river.nc)
                   (Tmin=          0.0000 Tmax=         92.0000)      t =          3.0000
                   (Min =  2.03900166E+01 Max =  2.53793163E+01)
    GET_NGFLD   - river runoff salinity,                           2010-04-23 00:00:00.00
                   (Grid= 01, Rec=0000004, Index=2, File: oil_03_river.nc)
                   (Tmin=          0.0000 Tmax=         92.0000)      t =          3.0000
                   (Min =  3.00000000E+00 Max =  3.00000000E+00)
    GET_2DFLD   - solar shortwave radiation flux,                  2010-04-22 01:00:00.00
                   (Grid=01, Rec=0000050, Index=1, File: oil_frc_off.nc)
                   (Tmin=          0.0000 Tmax=         93.0000)      t =          2.0417
                   (Min = -3.56702987E-09 Max =  8.50743775E-06)      regrid = F
    GET_2DFLD   - bottom net heat flux,                            2010-04-22 01:00:00.00
                   (Grid=01, Rec=0000050, Index=1, File: oil_frc_off.nc)
                   (Tmin=          0.0000 Tmax=         93.0000)      t =          2.0417
                   (Min =  0.00000000E+00 Max =  0.00000000E+00)      regrid = F
    GET_NGFLD   - free-surface western boundary condition,         2010-04-23 00:00:00.00
                   (Grid= 01, Rec=0000004, Index=2, File: oil_03_bdy.nc)
                   (Tmin=          0.0000 Tmax=         92.0000)      t =          3.0000
                   (Min =  0.00000000E+00 Max =  0.00000000E+00)
    GET_NGFLD   - free-surface eastern boundary condition,         2010-04-23 00:00:00.00
                   (Grid= 01, Rec=0000004, Index=2, File: oil_03_bdy.nc)
                   (Tmin=          0.0000 Tmax=         92.0000)      t =          3.0000
                   (Min =  0.00000000E+00 Max =  0.00000000E+00)
    GET_NGFLD   - free-surface southern boundary condition,        2010-04-23 00:00:00.00
                   (Grid= 01, Rec=0000004, Index=2, File: oil_03_bdy.nc)
                   (Tmin=          0.0000 Tmax=         92.0000)      t =          3.0000
                   (Min =  0.00000000E+00 Max =  0.00000000E+00)
    GET_NGFLD   - 2D u-momentum western boundary condition,        2010-04-23 00:00:00.00
                   (Grid= 01, Rec=0000004, Index=2, File: oil_03_bdy.nc)
                   (Tmin=          0.0000 Tmax=         92.0000)      t =          3.0000
                   (Min =  0.00000000E+00 Max =  0.00000000E+00)
    GET_NGFLD   - 2D v-momentum western boundary condition,        2010-04-23 00:00:00.00
                   (Grid= 01, Rec=0000004, Index=2, File: oil_03_bdy.nc)
                   (Tmin=          0.0000 Tmax=         92.0000)      t =          3.0000
                   (Min =  0.00000000E+00 Max =  0.00000000E+00)
    GET_NGFLD   - 2D u-momentum eastern boundary condition,        2010-04-23 00:00:00.00
                   (Grid= 01, Rec=0000004, Index=2, File: oil_03_bdy.nc)
                   (Tmin=          0.0000 Tmax=         92.0000)      t =          3.0000
                   (Min =  0.00000000E+00 Max =  0.00000000E+00)
    GET_NGFLD   - 2D v-momentum eastern boundary condition,        2010-04-23 00:00:00.00
                   (Grid= 01, Rec=0000004, Index=2, File: oil_03_bdy.nc)
                   (Tmin=          0.0000 Tmax=         92.0000)      t =          3.0000
                   (Min =  0.00000000E+00 Max =  0.00000000E+00)
    GET_NGFLD   - 2D u-momentum southern boundary condition,       2010-04-23 00:00:00.00
                   (Grid= 01, Rec=0000004, Index=2, File: oil_03_bdy.nc)
                   (Tmin=          0.0000 Tmax=         92.0000)      t =          3.0000
                   (Min =  0.00000000E+00 Max =  0.00000000E+00)
    GET_NGFLD   - 2D v-momentum southern boundary condition,       2010-04-23 00:00:00.00
                   (Grid= 01, Rec=0000004, Index=2, File: oil_03_bdy.nc)
                   (Tmin=          0.0000 Tmax=         92.0000)      t =          3.0000
                   (Min =  0.00000000E+00 Max =  0.00000000E+00)
    GET_2DFLD   - sea surface height climatology,                  2010-04-22 06:00:00.00
                   (Grid=01, Rec=0000005, Index=1, File: oil_clm_off.nc)
                   (Tmin=          1.2500 Tmax=         12.7500)      t =          2.2500
                   (Min = -3.25124145E-01 Max =  5.58795214E-01)      regrid = F
    GET_2DFLD   - vertically integrated u-momentum climatolog,     2010-04-22 06:00:00.00
                   (Grid=01, Rec=0000005, Index=1, File: oil_clm_off.nc)
                   (Tmin=          1.2500 Tmax=         12.7500)      t =          2.2500
                   (Min = -3.64691347E-01 Max =  3.25671732E-01)      regrid = F
    GET_2DFLD   - vertically integrated v-momentum climatolog,     2010-04-22 06:00:00.00
                   (Grid=01, Rec=0000005, Index=1, File: oil_clm_off.nc)
                   (Tmin=          1.2500 Tmax=         12.7500)      t =          2.2500
                   (Min = -6.63274407E-01 Max =  2.82365173E-01)      regrid = F
    GET_3DFLD   - u-momentum component climatology,                2010-04-22 06:00:00.00
                   (Grid=01, Rec=0000005, Index=1, File: oil_clm_off.nc)
                   (Tmin=          1.2500 Tmax=         12.7500)      t =          2.2500
                   (Min = -1.28580785E+00 Max =  1.53137672E+00)
    GET_3DFLD   - v-momentum component climatology,                2010-04-22 06:00:00.00
                   (Grid=01, Rec=0000005, Index=1, File: oil_clm_off.nc)
                   (Tmin=          1.2500 Tmax=         12.7500)      t =          2.2500
                   (Min = -2.96877146E+00 Max =  1.63620281E+00)
    GET_3DFLD   - potential temperature climatology,               2010-04-22 06:00:00.00
                   (Grid=01, Rec=0000005, Index=1, File: oil_clm_off.nc)
                   (Tmin=          1.2500 Tmax=         12.7500)      t =          2.2500
                   (Min =  4.16741467E+00 Max =  2.70780449E+01)
    GET_3DFLD   - salinity climatology,                            2010-04-22 06:00:00.00
                   (Grid=01, Rec=0000005, Index=1, File: oil_clm_off.nc)
                   (Tmin=          1.2500 Tmax=         12.7500)      t =          2.2500
                   (Min =  2.29655576E+00 Max =  3.72289581E+01)
    GET_3DFLD   - S-coordinate vertical momentum climatology,      2010-04-22 06:00:00.00
                   (Grid=01, Rec=0000005, Index=1, File: oil_clm_off.nc)
                   (Tmin=          1.2500 Tmax=         12.7500)      t =          2.2500
                   (Min = -8.02292209E-03 Max =  1.36118904E-02)
         1 2010-04-22 00:00:20.00  0.000000E+00  1.240999E+04  1.240999E+04  6.247011E+14
                     (063,099,34)  0.000000E+00  0.000000E+00  5.748335E-02  0.000000E+00
      WRT_HIS     - wrote history     fields (Index=1,2) in record = 0000002
         2 2010-04-22 00:00:40.00  1.304510E-02  1.241349E+04  1.241350E+04  6.247011E+14
                     (063,099,34)  2.401694E-04  3.169450E-03  5.748518E-02  2.088609E+00
      WRT_HIS     - wrote history     fields (Index=1,1) in record = 0000003
         3 2010-04-22 00:01:00.00  1.304400E-02  1.241349E+04  1.241350E+04  6.247011E+14
                     (063,099,34)  2.401760E-04  3.169505E-03  5.748701E-02  2.088640E+00
      WRT_HIS     - wrote history     fields (Index=1,2) in record = 0000004
         4 2010-04-22 00:01:20.00  1.304270E-02  1.241349E+04  1.241350E+04  6.247011E+14
                     (063,099,34)  2.401827E-04  3.169560E-03  5.748884E-02  2.088672E+00
      WRT_HIS     - wrote history     fields (Index=1,1) in record = 0000005
         5 2010-04-22 00:01:40.00  1.304161E-02  1.241349E+04  1.241350E+04  6.247011E+14
                     (063,099,34)  2.401893E-04  3.169615E-03  5.749067E-02  2.088703E+00
      WRT_HIS     - wrote history     fields (Index=1,2) in record = 0000006
         6 2010-04-22 00:02:00.00  1.304031E-02  1.241349E+04  1.241350E+04  6.247011E+14
                     (063,099,34)  2.401959E-04  3.169670E-03  5.749250E-02  2.088734E+00
      WRT_HIS     - wrote history     fields (Index=1,1) in record = 0000007
         7 2010-04-22 00:02:20.00  1.303922E-02  1.241349E+04  1.241350E+04  6.247011E+14
                     (063,099,34)  2.402026E-04  3.169726E-03  5.749433E-02  2.088765E+00
      WRT_HIS     - wrote history     fields (Index=1,2) in record = 0000008
         8 2010-04-22 00:02:40.00  1.303793E-02  1.241349E+04  1.241350E+04  6.247011E+14
                     (063,099,34)  2.402092E-04  3.169781E-03  5.749616E-02  2.088797E+00
      WRT_HIS     - wrote history     fields (Index=1,1) in record = 0000009
         9 2010-04-22 00:03:00.00  1.303684E-02  1.241349E+04  1.241350E+04  6.247011E+14
                     (063,099,34)  2.402159E-04  3.169836E-03  5.749799E-02  2.088828E+00
      WRT_HIS     - wrote history     fields (Index=1,2) in record = 0000010
        10 2010-04-22 00:03:20.00  1.303555E-02  1.241349E+04  1.241350E+04  6.247011E+14
                     (063,099,34)  2.402225E-04  3.169891E-03  5.749982E-02  2.088859E+00
      WRT_HIS     - wrote history     fields (Index=1,1) in record = 0000011
        11 2010-04-22 00:03:40.00  1.303447E-02  1.241349E+04  1.241350E+04  6.247011E+14
                     (063,099,34)  2.402291E-04  3.169946E-03  5.750165E-02  2.088890E+00
      WRT_HIS     - wrote history     fields (Index=1,2) in record = 0000012
        12 2010-04-22 00:04:00.00  1.303319E-02  1.241349E+04  1.241350E+04  6.247011E+14
                     (063,099,34)  2.402358E-04  3.170001E-03  5.750348E-02  2.088922E+00
      WRT_HIS     - wrote history     fields (Index=1,1) in record = 0000013
        13 2010-04-22 00:04:20.00  1.303211E-02  1.241349E+04  1.241350E+04  6.247011E+14
                     (063,099,34)  2.402424E-04  3.170056E-03  5.750531E-02  2.088953E+00
      WRT_HIS     - wrote history     fields (Index=1,2) in record = 0000014
        14 2010-04-22 00:04:40.00  1.303083E-02  1.241349E+04  1.241350E+04  6.247011E+14
                     (063,099,34)  2.402490E-04  3.170111E-03  5.750714E-02  2.088984E+00
      WRT_HIS     - wrote history     fields (Index=1,1) in record = 0000015
        15 2010-04-22 00:05:00.00  1.302975E-02  1.241349E+04  1.241350E+04  6.247011E+14
                     (063,099,34)  2.402557E-04  3.170167E-03  5.750897E-02  2.089015E+00
      WRT_HIS     - wrote history     fields (Index=1,2) in record = 0000016
        16 2010-04-22 00:05:20.00  1.302848E-02  1.241349E+04  1.241350E+04  6.247011E+14
                     (063,099,34)  2.402623E-04  3.170222E-03  5.751081E-02  2.089047E+00
      WRT_HIS     - wrote history     fields (Index=1,1) in record = 0000017
        17 2010-04-22 00:05:40.00  1.302740E-02  1.241349E+04  1.241350E+04  6.247011E+14
                     (063,099,34)  2.402690E-04  3.170277E-03  5.751264E-02  2.089078E+00
      WRT_HIS     - wrote history     fields (Index=1,2) in record = 0000018
        18 2010-04-22 00:06:00.00  1.302613E-02  1.241349E+04  1.241350E+04  6.247011E+14
                     (063,099,34)  2.402756E-04  3.170332E-03  5.751447E-02  2.089109E+00
      WRT_HIS     - wrote history     fields (Index=1,1) in record = 0000019
        19 2010-04-22 00:06:20.00  1.302506E-02  1.241349E+04  1.241350E+04  6.247011E+14
                     (063,099,34)  2.402822E-04  3.170387E-03  5.751630E-02  2.089140E+00
      WRT_HIS     - wrote history     fields (Index=1,2) in record = 0000020
        20 2010-04-22 00:06:40.00  1.302379E-02  1.241349E+04  1.241350E+04  6.247011E+14
                     (063,099,34)  2.402889E-04  3.170442E-03  5.751813E-02  2.089171E+00
      WRT_HIS     - wrote history     fields (Index=1,1) in record = 0000021
        21 2010-04-22 00:07:00.00  1.302273E-02  1.241349E+04  1.241350E+04  6.247011E+14
                     (063,099,34)  2.402955E-04  3.170497E-03  5.751996E-02  2.089203E+00
      WRT_HIS     - wrote history     fields (Index=1,2) in record = 0000022
        22 2010-04-22 00:07:20.00  1.302147E-02  1.241349E+04  1.241350E+04  6.247011E+14
                     (063,099,34)  2.403021E-04  3.170552E-03  5.752179E-02  2.089234E+00
      WRT_HIS     - wrote history     fields (Index=1,1) in record = 0000023
        23 2010-04-22 00:07:40.00  1.302041E-02  1.241349E+04  1.241350E+04  6.247011E+14
                     (063,099,34)  2.403088E-04  3.170607E-03  5.752362E-02  2.089265E+00
      WRT_HIS     - wrote history     fields (Index=1,2) in record = 0000024
        24 2010-04-22 00:08:00.00  1.301915E-02  1.241349E+04  1.241350E+04  6.247011E+14
                     (063,099,34)  2.403154E-04  3.170663E-03  5.752545E-02  2.089296E+00
      WRT_HIS     - wrote history     fields (Index=1,1) in record = 0000025
        25 2010-04-22 00:08:20.00  1.301809E-02  1.241349E+04  1.241350E+04  6.247011E+14
                     (063,099,34)  2.403221E-04  3.170718E-03  5.752728E-02  2.089328E+00
      WRT_HIS     - wrote history     fields (Index=1,2) in record = 0000026
        26 2010-04-22 00:08:40.00  1.301683E-02  1.241349E+04  1.241350E+04  6.247011E+14
                     (063,099,34)  2.403287E-04  3.170773E-03  5.752911E-02  2.089359E+00
      WRT_HIS     - wrote history     fields (Index=1,1) in record = 0000027
        27 2010-04-22 00:09:00.00  1.301578E-02  1.241349E+04  1.241350E+04  6.247011E+14
                     (063,099,34)  2.403353E-04  3.170828E-03  5.753094E-02  2.089390E+00
      WRT_HIS     - wrote history     fields (Index=1,2) in record = 0000028
        28 2010-04-22 00:09:20.00  1.301453E-02  1.241349E+04  1.241350E+04  6.247011E+14
                     (063,099,34)  2.403420E-04  3.170883E-03  5.753277E-02  2.089421E+00
      WRT_HIS     - wrote history     fields (Index=1,1) in record = 0000029
        29 2010-04-22 00:09:40.00  1.301348E-02  1.241349E+04  1.241350E+04  6.247011E+14
                     (063,099,34)  2.403486E-04  3.170938E-03  5.753460E-02  2.089453E+00
      WRT_HIS     - wrote history     fields (Index=1,2) in record = 0000030
        30 2010-04-22 00:10:00.00  1.301223E-02  1.241349E+04  1.241350E+04  6.247011E+14
                     (063,099,34)  2.403552E-04  3.170993E-03  5.753643E-02  2.089484E+00
      WRT_HIS     - wrote history     fields (Index=1,1) in record = 0000031
        31 2010-04-22 00:10:20.00  1.301119E-02  1.241349E+04  1.241350E+04  6.247011E+14
                     (063,099,34)  2.403619E-04  3.171048E-03  5.753826E-02  2.089515E+00
      WRT_HIS     - wrote history     fields (Index=1,2) in record = 0000032
        32 2010-04-22 00:10:40.00  1.300994E-02  1.241349E+04  1.241350E+04  6.247011E+14
                     (063,099,34)  2.403685E-04  3.171104E-03  5.754009E-02  2.089546E+00
      WRT_HIS     - wrote history     fields (Index=1,1) in record = 0000033
        33 2010-04-22 00:11:00.00  1.300890E-02  1.241349E+04  1.241350E+04  6.247011E+14
                     (063,099,34)  2.403752E-04  3.171159E-03  5.754193E-02  2.089578E+00
      WRT_HIS     - wrote history     fields (Index=1,2) in record = 0000034
        34 2010-04-22 00:11:20.00  1.300766E-02  1.241349E+04  1.241350E+04  6.247011E+14
                     (063,099,34)  2.403818E-04  3.171214E-03  5.754376E-02  2.089609E+00
      WRT_HIS     - wrote history     fields (Index=1,1) in record = 0000035
        35 2010-04-22 00:11:40.00  1.300662E-02  1.241349E+04  1.241350E+04  6.247011E+14
                     (063,099,34)  2.403884E-04  3.171269E-03  5.754559E-02  2.089640E+00
      WRT_HIS     - wrote history     fields (Index=1,2) in record = 0000036
        36 2010-04-22 00:12:00.00  1.300539E-02  1.241349E+04  1.241350E+04  6.247011E+14
                     (063,099,34)  2.403951E-04  3.171324E-03  5.754742E-02  2.089671E+00
      WRT_HIS     - wrote history     fields (Index=1,1) in record = 0000037
        37 2010-04-22 00:12:20.00  1.300435E-02  1.241349E+04  1.241350E+04  6.247011E+14
                     (063,099,34)  2.404017E-04  3.171379E-03  5.754925E-02  2.089703E+00
      WRT_HIS     - wrote history     fields (Index=1,2) in record = 0000038
        38 2010-04-22 00:12:40.00  1.300312E-02  1.241349E+04  1.241350E+04  6.247011E+14
                     (063,099,34)  2.404083E-04  3.171434E-03  5.755108E-02  2.089734E+00
      WRT_HIS     - wrote history     fields (Index=1,1) in record = 0000039
        39 2010-04-22 00:13:00.00  1.300209E-02  1.241349E+04  1.241350E+04  6.247011E+14
                     (063,099,34)  2.404150E-04  3.171489E-03  5.755291E-02  2.089765E+00
      WRT_HIS     - wrote history     fields (Index=1,2) in record = 0000040
        40 2010-04-22 00:13:20.00  1.300086E-02  1.241349E+04  1.241350E+04  6.247011E+14
                     (063,099,34)  2.404216E-04  3.171545E-03  5.755474E-02  2.089796E+00
      WRT_HIS     - wrote history     fields (Index=1,1) in record = 0000041
        41 2010-04-22 00:13:40.00  1.299984E-02  1.241349E+04  1.241350E+04  6.247011E+14
                     (063,099,34)  2.404283E-04  3.171600E-03  5.755657E-02  2.089828E+00
      WRT_HIS     - wrote history     fields (Index=1,2) in record = 0000042
        42 2010-04-22 00:14:00.00  1.299861E-02  1.241349E+04  1.241350E+04  6.247011E+14
                     (063,099,34)  2.404349E-04  3.171655E-03  5.755840E-02  2.089859E+00
      WRT_HIS     - wrote history     fields (Index=1,1) in record = 0000043
        43 2010-04-22 00:14:20.00  1.299759E-02  1.241349E+04  1.241350E+04  6.247011E+14
                     (063,099,34)  2.404415E-04  3.171710E-03  5.756023E-02  2.089890E+00
      WRT_HIS     - wrote history     fields (Index=1,2) in record = 0000044
        44 2010-04-22 00:14:40.00  1.299637E-02  1.241349E+04  1.241350E+04  6.247011E+14
                     (063,099,34)  2.404482E-04  3.171765E-03  5.756206E-02  2.089921E+00
      WRT_HIS     - wrote history     fields (Index=1,1) in record = 0000045
        45 2010-04-22 00:15:00.00  1.299535E-02  1.241349E+04  1.241350E+04  6.247011E+14
                     (063,099,34)  2.404548E-04  3.171820E-03  5.756389E-02  2.089952E+00
      WRT_HIS     - wrote history     fields (Index=1,2) in record = 0000046
        46 2010-04-22 00:15:20.00  1.299414E-02  1.241349E+04  1.241350E+04  6.247011E+14
                     (063,099,34)  2.404614E-04  3.171875E-03  5.756572E-02  2.089984E+00
      WRT_HIS     - wrote history     fields (Index=1,1) in record = 0000047
        47 2010-04-22 00:15:40.00  1.299312E-02  1.241349E+04  1.241350E+04  6.247011E+14
                     (063,099,35)  2.410068E-04  3.329290E-03  5.740977E-02  2.090015E+00
      WRT_HIS     - wrote history     fields (Index=1,2) in record = 0000048
        48 2010-04-22 00:16:00.00  1.299191E-02  1.241349E+04  1.241350E+04  6.247011E+14
                     (063,099,35)  2.410137E-04  3.329348E-03  5.741188E-02  2.090046E+00
      WRT_HIS     - wrote history     fields (Index=1,1) in record = 0000049
        49 2010-04-22 00:16:20.00  1.299090E-02  1.241349E+04  1.241350E+04  6.247011E+14
                     (063,099,35)  2.410206E-04  3.329406E-03  5.741400E-02  2.090077E+00
      WRT_HIS     - wrote history     fields (Index=1,2) in record = 0000050
        50 2010-04-22 00:16:40.00  1.298969E-02  1.241349E+04  1.241350E+04  6.247011E+14
                     (063,099,35)  2.410275E-04  3.329463E-03  5.741611E-02  2.090109E+00
      WRT_HIS     - wrote history     fields (Index=1,1) in record = 0000051
        51 2010-04-22 00:17:00.00  1.298869E-02  1.241349E+04  1.241350E+04  6.247011E+14
                     (063,099,35)  2.410344E-04  3.329521E-03  5.741822E-02  2.090140E+00
      WRT_HIS     - wrote history     fields (Index=1,2) in record = 0000052
        52 2010-04-22 00:17:20.00  1.298748E-02  1.241349E+04  1.241350E+04  6.247011E+14
                     (063,099,35)  2.410413E-04  3.329578E-03  5.742034E-02  2.090171E+00
      WRT_HIS     - wrote history     fields (Index=1,1) in record = 0000053
        53 2010-04-22 00:17:40.00  1.298648E-02  1.241349E+04  1.241350E+04  6.247011E+14
                     (063,099,35)  2.410482E-04  3.329636E-03  5.742245E-02  2.090202E+00
      WRT_HIS     - wrote history     fields (Index=1,2) in record = 0000054
        54 2010-04-22 00:18:00.00  1.298528E-02  1.241349E+04  1.241350E+04  6.247011E+14
                     (063,099,35)  2.410551E-04  3.329694E-03  5.742457E-02  2.090234E+00
      WRT_HIS     - wrote history     fields (Index=1,1) in record = 0000055
        55 2010-04-22 00:18:20.00  1.298428E-02  1.241349E+04  1.241350E+04  6.247011E+14
                     (063,099,35)  2.410620E-04  3.329751E-03  5.742668E-02  2.090265E+00
      WRT_HIS     - wrote history     fields (Index=1,2) in record = 0000056
        56 2010-04-22 00:18:40.00  1.298308E-02  1.241349E+04  1.241350E+04  6.247011E+14
                     (063,099,35)  2.410689E-04  3.329809E-03  5.742880E-02  2.090296E+00
      WRT_HIS     - wrote history     fields (Index=1,1) in record = 0000057
        57 2010-04-22 00:19:00.00  1.298209E-02  1.241349E+04  1.241350E+04  6.247011E+14
                     (063,099,35)  2.410758E-04  3.329866E-03  5.743091E-02  2.090327E+00
      WRT_HIS     - wrote history     fields (Index=1,2) in record = 0000058
        58 2010-04-22 00:19:20.00  1.298090E-02  1.241349E+04  1.241350E+04  6.247011E+14
                     (063,099,35)  2.410827E-04  3.329924E-03  5.743302E-02  2.090359E+00
      WRT_HIS     - wrote history     fields (Index=1,1) in record = 0000059
        59 2010-04-22 00:19:40.00  1.297990E-02  1.241349E+04  1.241350E+04  6.247011E+14
                     (063,099,35)  2.410896E-04  3.329982E-03  5.743514E-02  2.090390E+00
      WRT_HIS     - wrote history     fields (Index=1,2) in record = 0000060
        60 2010-04-22 00:20:00.00  1.297872E-02  1.241349E+04  1.241350E+04  6.247011E+14
                     (063,099,35)  2.410965E-04  3.330039E-03  5.743725E-02  2.090421E+00
      WRT_HIS     - wrote history     fields (Index=1,1) in record = 0000061
        61 2010-04-22 00:20:20.00  1.297773E-02  1.241349E+04  1.241350E+04  6.247011E+14
                     (063,099,35)  2.411034E-04  3.330097E-03  5.743937E-02  2.090452E+00
      WRT_HIS     - wrote history     fields (Index=1,2) in record = 0000062
        62 2010-04-22 00:20:40.00  1.297654E-02  1.241349E+04  1.241350E+04  6.247011E+14
                     (063,099,35)  2.411103E-04  3.330155E-03  5.744148E-02  2.090484E+00
      WRT_HIS     - wrote history     fields (Index=1,1) in record = 0000063
        63 2010-04-22 00:21:00.00  1.297556E-02  1.241349E+04  1.241350E+04  6.247011E+14
                     (063,099,35)  2.411172E-04  3.330212E-03  5.744359E-02  2.090515E+00
      WRT_HIS     - wrote history     fields (Index=1,2) in record = 0000064
        64 2010-04-22 00:21:20.00  1.297438E-02  1.241349E+04  1.241350E+04  6.247011E+14
                     (063,099,35)  2.411241E-04  3.330270E-03  5.744571E-02  2.090546E+00
      WRT_HIS     - wrote history     fields (Index=1,1) in record = 0000065
        65 2010-04-22 00:21:40.00  1.297340E-02  1.241349E+04  1.241350E+04  6.247011E+14
                     (063,099,35)  2.411310E-04  3.330327E-03  5.744782E-02  2.090577E+00
      WRT_HIS     - wrote history     fields (Index=1,2) in record = 0000066
        66 2010-04-22 00:22:00.00  1.297222E-02  1.241349E+04  1.241350E+04  6.247011E+14
                     (063,099,35)  2.411379E-04  3.330385E-03  5.744994E-02  2.090609E+00
      WRT_HIS     - wrote history     fields (Index=1,1) in record = 0000067
        67 2010-04-22 00:22:20.00  1.297125E-02  1.241349E+04  1.241350E+04  6.247011E+14
                     (063,099,35)  2.411448E-04  3.330443E-03  5.745205E-02  2.090640E+00
      WRT_HIS     - wrote history     fields (Index=1,2) in record = 0000068
        68 2010-04-22 00:22:40.00  1.297008E-02  1.241349E+04  1.241350E+04  6.247011E+14
                     (063,099,35)  2.411517E-04  3.330500E-03  5.745416E-02  2.090671E+00
      WRT_HIS     - wrote history     fields (Index=1,1) in record = 0000069
        69 2010-04-22 00:23:00.00  1.296910E-02  1.241349E+04  1.241350E+04  6.247011E+14
                     (063,099,35)  2.411586E-04  3.330558E-03  5.745628E-02  2.090702E+00
      WRT_HIS     - wrote history     fields (Index=1,2) in record = 0000070
        70 2010-04-22 00:23:20.00  1.296794E-02  1.241349E+04  1.241350E+04  6.247011E+14
                     (063,099,35)  2.411655E-04  3.330615E-03  5.745839E-02  2.090734E+00
      WRT_HIS     - wrote history     fields (Index=1,1) in record = 0000071
        71 2010-04-22 00:23:40.00  1.296697E-02  1.241349E+04  1.241350E+04  6.247011E+14
                     (063,099,35)  2.411724E-04  3.330673E-03  5.746051E-02  2.090765E+00
      WRT_HIS     - wrote history     fields (Index=1,2) in record = 0000072
        72 2010-04-22 00:24:00.00  1.296580E-02  1.241349E+04  1.241350E+04  6.247011E+14
                     (063,099,35)  2.411793E-04  3.330731E-03  5.746262E-02  2.090796E+00
      WRT_HIS     - wrote history     fields (Index=1,1) in record = 0000073
        73 2010-04-22 00:24:20.00  1.296484E-02  1.241349E+04  1.241350E+04  6.247011E+14
                     (063,099,35)  2.411862E-04  3.330788E-03  5.746473E-02  2.090827E+00
      WRT_HIS     - wrote history     fields (Index=1,2) in record = 0000074
        74 2010-04-22 00:24:40.00  1.296368E-02  1.241349E+04  1.241350E+04  6.247011E+14
                     (063,099,35)  2.411931E-04  3.330846E-03  5.746685E-02  2.090858E+00
      WRT_HIS     - wrote history     fields (Index=1,1) in record = 0000075
        75 2010-04-22 00:25:00.00  1.296272E-02  1.241349E+04  1.241350E+04  6.247011E+14
                     (063,099,35)  2.412000E-04  3.330903E-03  5.746896E-02  2.090890E+00
      WRT_HIS     - wrote history     fields (Index=1,2) in record = 0000076
        76 2010-04-22 00:25:20.00  1.296156E-02  1.241349E+04  1.241350E+04  6.247011E+14
                     (063,099,35)  2.412069E-04  3.330961E-03  5.747108E-02  2.090921E+00
      WRT_HIS     - wrote history     fields (Index=1,1) in record = 0000077
        77 2010-04-22 00:25:40.00  1.296061E-02  1.241349E+04  1.241350E+04  6.247011E+14
                     (063,099,35)  2.412138E-04  3.331019E-03  5.747319E-02  2.090952E+00
      WRT_HIS     - wrote history     fields (Index=1,2) in record = 0000078
        78 2010-04-22 00:26:00.00  1.295945E-02  1.241349E+04  1.241350E+04  6.247011E+14
                     (063,099,35)  2.412207E-04  3.331076E-03  5.747530E-02  2.090983E+00
      WRT_HIS     - wrote history     fields (Index=1,1) in record = 0000079
        79 2010-04-22 00:26:20.00  1.295850E-02  1.241349E+04  1.241350E+04  6.247011E+14
                     (063,099,35)  2.412276E-04  3.331134E-03  5.747742E-02  2.091015E+00
      WRT_HIS     - wrote history     fields (Index=1,2) in record = 0000080
        80 2010-04-22 00:26:40.00  1.295735E-02  1.241349E+04  1.241350E+04  6.247011E+14
                     (063,099,35)  2.412345E-04  3.331191E-03  5.747953E-02  2.091046E+00
      WRT_HIS     - wrote history     fields (Index=1,1) in record = 0000081
        81 2010-04-22 00:27:00.00  1.295640E-02  1.241349E+04  1.241350E+04  6.247011E+14
                     (063,099,35)  2.412413E-04  3.331249E-03  5.748165E-02  2.091077E+00
      WRT_HIS     - wrote history     fields (Index=1,2) in record = 0000082
        82 2010-04-22 00:27:20.00  1.295526E-02  1.241349E+04  1.241350E+04  6.247011E+14
                     (063,099,35)  2.412482E-04  3.331307E-03  5.748376E-02  2.091108E+00
      WRT_HIS     - wrote history     fields (Index=1,1) in record = 0000083
        83 2010-04-22 00:27:40.00  1.295431E-02  1.241349E+04  1.241350E+04  6.247011E+14
                     (063,099,35)  2.412551E-04  3.331364E-03  5.748588E-02  2.091140E+00
      WRT_HIS     - wrote history     fields (Index=1,2) in record = 0000084
        84 2010-04-22 00:28:00.00  1.295317E-02  1.241349E+04  1.241350E+04  6.247011E+14
                     (063,099,35)  2.412620E-04  3.331422E-03  5.748799E-02  2.091171E+00
      WRT_HIS     - wrote history     fields (Index=1,1) in record = 0000085
        85 2010-04-22 00:28:20.00  1.295223E-02  1.241349E+04  1.241350E+04  6.247011E+14
                     (063,099,35)  2.412689E-04  3.331479E-03  5.749010E-02  2.091202E+00
      WRT_HIS     - wrote history     fields (Index=1,2) in record = 0000086
        86 2010-04-22 00:28:40.00  1.295109E-02  1.241349E+04  1.241350E+04  6.247011E+14
                     (063,099,35)  2.412758E-04  3.331537E-03  5.749222E-02  2.091233E+00
      WRT_HIS     - wrote history     fields (Index=1,1) in record = 0000087
        87 2010-04-22 00:29:00.00  1.295016E-02  1.241349E+04  1.241350E+04  6.247011E+14
                     (063,099,35)  2.412827E-04  3.331595E-03  5.749433E-02  2.091265E+00
      WRT_HIS     - wrote history     fields (Index=1,2) in record = 0000088
        88 2010-04-22 00:29:20.00  1.294902E-02  1.241349E+04  1.241350E+04  6.247011E+14
                     (063,099,35)  2.412896E-04  3.331652E-03  5.749645E-02  2.091296E+00
      WRT_HIS     - wrote history     fields (Index=1,1) in record = 0000089
        89 2010-04-22 00:29:40.00  1.294809E-02  1.241349E+04  1.241350E+04  6.247011E+14
                     (063,099,35)  2.412965E-04  3.331710E-03  5.749856E-02  2.091327E+00
      WRT_HIS     - wrote history     fields (Index=1,2) in record = 0000090
        90 2010-04-22 00:30:00.00  1.294696E-02  1.241349E+04  1.241350E+04  6.247011E+14
                     (063,099,35)  2.413034E-04  3.331768E-03  5.750067E-02  2.091358E+00
      WRT_HIS     - wrote history     fields (Index=1,1) in record = 0000091
        91 2010-04-22 00:30:20.00  1.294603E-02  1.241349E+04  1.241350E+04  6.247011E+14
                     (063,099,35)  2.413103E-04  3.331825E-03  5.750279E-02  2.091390E+00
      WRT_HIS     - wrote history     fields (Index=1,2) in record = 0000092
        92 2010-04-22 00:30:40.00  1.294491E-02  1.241349E+04  1.241350E+04  6.247011E+14
                     (063,099,35)  2.413172E-04  3.331883E-03  5.750490E-02  2.091421E+00
      WRT_HIS     - wrote history     fields (Index=1,1) in record = 0000093
        93 2010-04-22 00:31:00.00  1.294398E-02  1.241349E+04  1.241350E+04  6.247011E+14
                     (063,099,35)  2.413241E-04  3.331940E-03  5.750702E-02  2.091452E+00
      WRT_HIS     - wrote history     fields (Index=1,2) in record = 0000094
        94 2010-04-22 00:31:20.00  1.294286E-02  1.241349E+04  1.241350E+04  6.247011E+14
                     (063,099,35)  2.413310E-04  3.331998E-03  5.750913E-02  2.091483E+00
      WRT_HIS     - wrote history     fields (Index=1,1) in record = 0000095
        95 2010-04-22 00:31:40.00  1.294194E-02  1.241349E+04  1.241350E+04  6.247011E+14
                     (063,099,35)  2.413379E-04  3.332056E-03  5.751124E-02  2.091515E+00
[...]
       700 2010-04-22 03:53:20.00  1.268358E-02  1.241349E+04  1.241351E+04  6.247011E+14
                     (063,099,35)  2.455110E-04  3.366908E-03  5.879027E-02  2.110418E+00
      WRT_HIS     - wrote history     fields (Index=1,1) in record = 0000701
       701 2010-04-22 03:53:40.00  1.268384E-02  1.241349E+04  1.241351E+04  6.247011E+14
                     (063,099,35)  2.455179E-04  3.366966E-03  5.879238E-02  2.110449E+00
      WRT_HIS     - wrote history     fields (Index=1,2) in record = 0000702
       702 2010-04-22 03:54:00.00  1.268391E-02  1.241349E+04  1.241351E+04  6.247011E+14
                     (063,099,35)  2.455248E-04  3.367023E-03  5.879450E-02  2.110481E+00
      WRT_HIS     - wrote history     fields (Index=1,1) in record = 0000703
       703 2010-04-22 03:54:20.00  1.268418E-02  1.241349E+04  1.241351E+04  6.247011E+14
                     (063,099,35)  2.455317E-04  3.367081E-03  5.879661E-02  2.110512E+00
      WRT_HIS     - wrote history     fields (Index=1,2) in record = 0000704
       704 2010-04-22 03:54:40.00  1.268426E-02  1.241349E+04  1.241351E+04  6.247011E+14
                     (063,099,35)  2.455386E-04  3.367138E-03  5.879872E-02  2.110543E+00
      WRT_HIS     - wrote history     fields (Index=1,1) in record = 0000705
       705 2010-04-22 03:55:00.00  1.268452E-02  1.241349E+04  1.241351E+04  6.247011E+14
                     (063,099,35)  2.455455E-04  3.367196E-03  5.880084E-02  2.110574E+00
      WRT_HIS     - wrote history     fields (Index=1,2) in record = 0000706
       706 2010-04-22 03:55:20.00  1.268461E-02  1.241349E+04  1.241351E+04  6.247011E+14
                     (063,099,35)  2.455524E-04  3.367254E-03  5.880295E-02  2.110606E+00
      WRT_HIS     - wrote history     fields (Index=1,1) in record = 0000707
       707 2010-04-22 03:55:40.00  1.268488E-02  1.241349E+04  1.241351E+04  6.247011E+14
                     (063,099,35)  2.455592E-04  3.367311E-03  5.880507E-02  2.110637E+00
      WRT_HIS     - wrote history     fields (Index=1,2) in record = 0000708
       708 2010-04-22 03:56:00.00  1.268497E-02  1.241349E+04  1.241351E+04  6.247011E+14
                     (063,099,35)  2.455661E-04  3.367369E-03  5.880718E-02  2.110668E+00
      WRT_HIS     - wrote history     fields (Index=1,1) in record = 0000709
       709 2010-04-22 03:56:20.00  1.268524E-02  1.241349E+04  1.241351E+04  6.247011E+14
                     (063,099,35)  2.455730E-04  3.367426E-03  5.880929E-02  2.110699E+00
      WRT_HIS     - wrote history     fields (Index=1,2) in record = 0000710
       710 2010-04-22 03:56:40.00  1.268533E-02  1.241349E+04  1.241351E+04  6.247011E+14
                     (063,099,35)  2.455799E-04  3.367484E-03  5.881141E-02  2.110731E+00
      WRT_HIS     - wrote history     fields (Index=1,1) in record = 0000711
       711 2010-04-22 03:57:00.00  1.268561E-02  1.241349E+04  1.241351E+04  6.247011E+14
                     (063,099,35)  2.455868E-04  3.367542E-03  5.881352E-02  2.110762E+00
      WRT_HIS     - wrote history     fields (Index=1,2) in record = 0000712
       712 2010-04-22 03:57:20.00  1.268571E-02  1.241349E+04  1.241351E+04  6.247011E+14
                     (063,099,35)  2.455937E-04  3.367599E-03  5.881564E-02  2.110793E+00
      WRT_HIS     - wrote history     fields (Index=1,1) in record = 0000713
       713 2010-04-22 03:57:40.00  1.268599E-02  1.241350E+04  1.241351E+04  6.247011E+14
                     (063,099,35)  2.456006E-04  3.367657E-03  5.881775E-02  2.110824E+00
      WRT_HIS     - wrote history     fields (Index=1,2) in record = 0000714
       714 2010-04-22 03:58:00.00  1.268609E-02  1.241350E+04  1.241351E+04  6.247011E+14
                     (063,099,35)  2.456075E-04  3.367714E-03  5.881986E-02  2.110856E+00
      WRT_HIS     - wrote history     fields (Index=1,1) in record = 0000715
       715 2010-04-22 03:58:20.00  1.268637E-02  1.241350E+04  1.241351E+04  6.247011E+14
                     (063,099,35)  2.456144E-04  3.367772E-03  5.882198E-02  2.110887E+00
      WRT_HIS     - wrote history     fields (Index=1,2) in record = 0000716
       716 2010-04-22 03:58:40.00  1.268648E-02  1.241350E+04  1.241351E+04  6.247011E+14
                     (063,099,35)  2.456213E-04  3.367830E-03  5.882409E-02  2.110918E+00
      WRT_HIS     - wrote history     fields (Index=1,1) in record = 0000717
       717 2010-04-22 03:59:00.00  1.268677E-02  1.241350E+04  1.241351E+04  6.247011E+14
                     (063,099,35)  2.456282E-04  3.367887E-03  5.882621E-02  2.110949E+00
      WRT_HIS     - wrote history     fields (Index=1,2) in record = 0000718
       718 2010-04-22 03:59:20.00  1.268688E-02  1.241350E+04  1.241351E+04  6.247011E+14
                     (063,099,35)  2.456351E-04  3.367945E-03  5.882832E-02  2.110981E+00
      WRT_HIS     - wrote history     fields (Index=1,1) in record = 0000719
       719 2010-04-22 03:59:40.00  1.268717E-02  1.241350E+04  1.241351E+04  6.247011E+14
                     (063,099,35)  2.456420E-04  3.368002E-03  5.883043E-02  2.111012E+00
      WRT_HIS     - wrote history     fields (Index=1,2) in record = 0000720
       720 2010-04-22 04:00:00.00  1.268728E-02  1.241350E+04  1.241351E+04  6.247011E+14
                     (063,099,35)  2.456489E-04  3.368060E-03  5.883255E-02  2.111043E+00
      WRT_HIS     - wrote history     fields (Index=1,1) in record = 0000721
    GET_2DFLD   - solar shortwave radiation flux,                  2010-04-22 05:00:00.00
                   (Grid=01, Rec=0000054, Index=1, File: oil_frc_off.nc)
                   (Tmin=          0.0000 Tmax=         93.0000)      t =          2.2083
                   (Min = -9.28888763E-09 Max =  2.53598544E-08)      regrid = F
    GET_2DFLD   - bottom net heat flux,                            2010-04-22 05:00:00.00
                   (Grid=01, Rec=0000054, Index=1, File: oil_frc_off.nc)
                   (Tmin=          0.0000 Tmax=         93.0000)      t =          2.2083
                   (Min =  0.00000000E+00 Max =  0.00000000E+00)      regrid = F
       721 2010-04-22 04:00:20.00  1.268758E-02  1.241350E+04  1.241351E+04  6.247011E+14
                     (063,099,35)  2.456558E-04  3.368118E-03  5.883466E-02  2.111074E+00
      WRT_HIS     - wrote history     fields (Index=1,2) in record = 0000722
       722 2010-04-22 04:00:40.00  1.268770E-02  1.241350E+04  1.241351E+04  6.247011E+14
                     (063,099,35)  2.456627E-04  3.368175E-03  5.883678E-02  2.111106E+00
      WRT_HIS     - wrote history     fields (Index=1,1) in record = 0000723
       723 2010-04-22 04:01:00.00  1.268800E-02  1.241350E+04  1.241351E+04  6.247011E+14
                     (063,099,35)  2.456696E-04  3.368233E-03  5.883889E-02  2.111137E+00
      WRT_HIS     - wrote history     fields (Index=1,2) in record = 0000724
       724 2010-04-22 04:01:20.00  1.268812E-02  1.241350E+04  1.241351E+04  6.247011E+14
                     (063,099,35)  2.456765E-04  3.368290E-03  5.884100E-02  2.111168E+00
      WRT_HIS     - wrote history     fields (Index=1,1) in record = 0000725
       725 2010-04-22 04:01:40.00  1.268842E-02  1.241350E+04  1.241351E+04  6.247011E+14
                     (063,099,35)  2.456834E-04  3.368348E-03  5.884312E-02  2.111199E+00
      WRT_HIS     - wrote history     fields (Index=1,2) in record = 0000726
       726 2010-04-22 04:02:00.00  1.268855E-02  1.241350E+04  1.241351E+04  6.247011E+14
                     (063,099,35)  2.456903E-04  3.368406E-03  5.884523E-02  2.111231E+00
      WRT_HIS     - wrote history     fields (Index=1,1) in record = 0000727
       727 2010-04-22 04:02:20.00  1.268885E-02  1.241350E+04  1.241351E+04  6.247011E+14
                     (063,099,35)  2.456972E-04  3.368463E-03  5.884735E-02  2.111262E+00
      WRT_HIS     - wrote history     fields (Index=1,2) in record = 0000728
       728 2010-04-22 04:02:40.00  1.268898E-02  1.241350E+04  1.241351E+04  6.247011E+14
                     (063,099,35)  2.457041E-04  3.368521E-03  5.884946E-02  2.111293E+00
      WRT_HIS     - wrote history     fields (Index=1,1) in record = 0000729
       729 2010-04-22 04:03:00.00  1.268930E-02  1.241350E+04  1.241351E+04  6.247011E+14
                     (063,099,35)  2.457110E-04  3.368579E-03  5.885158E-02  2.111324E+00
      WRT_HIS     - wrote history     fields (Index=1,2) in record = 0000730
       730 2010-04-22 04:03:20.00  1.268943E-02  1.241350E+04  1.241351E+04  6.247011E+14
                     (063,099,35)  2.457179E-04  3.368636E-03  5.885369E-02  2.111356E+00
      WRT_HIS     - wrote history     fields (Index=1,1) in record = 0000731
       731 2010-04-22 04:03:40.00  1.268974E-02  1.241350E+04  1.241351E+04  6.247011E+14
                     (063,099,35)  2.457248E-04  3.368694E-03  5.885580E-02  2.111387E+00
      WRT_HIS     - wrote history     fields (Index=1,2) in record = 0000732
       732 2010-04-22 04:04:00.00  1.268988E-02  1.241350E+04  1.241351E+04  6.247011E+14
                     (063,099,35)  2.457317E-04  3.368751E-03  5.885792E-02  2.111418E+00
      WRT_HIS     - wrote history     fields (Index=1,1) in record = 0000733
       733 2010-04-22 04:04:20.00  1.269020E-02  1.241350E+04  1.241351E+04  6.247011E+14
                     (063,099,35)  2.457386E-04  3.368809E-03  5.886003E-02  2.111449E+00
      WRT_HIS     - wrote history     fields (Index=1,2) in record = 0000734
       734 2010-04-22 04:04:40.00  1.269034E-02  1.241350E+04  1.241351E+04  6.247011E+14
                     (063,099,35)  2.457455E-04  3.368867E-03  5.886215E-02  2.111481E+00
      WRT_HIS     - wrote history     fields (Index=1,1) in record = 0000735
       735 2010-04-22 04:05:00.00  1.269066E-02  1.241350E+04  1.241351E+04  6.247011E+14
                     (063,099,35)  2.457524E-04  3.368924E-03  5.886426E-02  2.111512E+00
      WRT_HIS     - wrote history     fields (Index=1,2) in record = 0000736
       736 2010-04-22 04:05:20.00  1.269081E-02  1.241350E+04  1.241351E+04  6.247011E+14
                     (063,099,35)  2.457593E-04  3.368982E-03  5.886637E-02  2.111543E+00
      WRT_HIS     - wrote history     fields (Index=1,1) in record = 0000737
       737 2010-04-22 04:05:40.00  1.269114E-02  1.241350E+04  1.241351E+04  6.247011E+14
                     (063,099,35)  2.457662E-04  3.369039E-03  5.886849E-02  2.111574E+00
      WRT_HIS     - wrote history     fields (Index=1,2) in record = 0000738
       738 2010-04-22 04:06:00.00  1.269128E-02  1.241350E+04  1.241351E+04  6.247011E+14
                     (063,099,35)  2.457731E-04  3.369097E-03  5.887060E-02  2.111606E+00
      WRT_HIS     - wrote history     fields (Index=1,1) in record = 0000739
       739 2010-04-22 04:06:20.00  1.269162E-02  1.241350E+04  1.241351E+04  6.247011E+14
                     (063,099,35)  2.457800E-04  3.369155E-03  5.887272E-02  2.111637E+00
      WRT_HIS     - wrote history     fields (Index=1,2) in record = 0000740
       740 2010-04-22 04:06:40.00  1.269177E-02  1.241350E+04  1.241351E+04  6.247011E+14
                     (063,099,35)  2.457869E-04  3.369212E-03  5.887483E-02  2.111668E+00
      WRT_HIS     - wrote history     fields (Index=1,1) in record = 0000741
       741 2010-04-22 04:07:00.00  1.269210E-02  1.241350E+04  1.241351E+04  6.247011E+14
                     (063,099,35)  2.457938E-04  3.369270E-03  5.887694E-02  2.111699E+00
      WRT_HIS     - wrote history     fields (Index=1,2) in record = 0000742
       742 2010-04-22 04:07:20.00  1.269226E-02  1.241350E+04  1.241351E+04  6.247011E+14
                     (063,099,35)  2.458007E-04  3.369327E-03  5.887906E-02  2.111731E+00
      WRT_HIS     - wrote history     fields (Index=1,1) in record = 0000743
       743 2010-04-22 04:07:40.00  1.269260E-02  1.241350E+04  1.241351E+04  6.247011E+14
                     (063,099,35)  2.458076E-04  3.369385E-03  5.888117E-02  2.111762E+00
      WRT_HIS     - wrote history     fields (Index=1,2) in record = 0000744
       744 2010-04-22 04:08:00.00  1.269276E-02  1.241350E+04  1.241351E+04  6.247011E+14
                     (063,099,35)  2.458145E-04  3.369443E-03  5.888329E-02  2.111793E+00
      WRT_HIS     - wrote history     fields (Index=1,1) in record = 0000745
       745 2010-04-22 04:08:20.00  1.269310E-02  1.241350E+04  1.241351E+04  6.247011E+14
                     (063,099,35)  2.458214E-04  3.369500E-03  5.888540E-02  2.111824E+00
      WRT_HIS     - wrote history     fields (Index=1,2) in record = 0000746
       746 2010-04-22 04:08:40.00  1.269327E-02  1.241350E+04  1.241351E+04  6.247011E+14
                     (063,099,35)  2.458283E-04  3.369558E-03  5.888751E-02  2.111856E+00
      WRT_HIS     - wrote history     fields (Index=1,1) in record = 0000747
       747 2010-04-22 04:09:00.00  1.269361E-02  1.241350E+04  1.241351E+04  6.247011E+14
                     (063,099,35)  2.458352E-04  3.369615E-03  5.888963E-02  2.111887E+00
      WRT_HIS     - wrote history     fields (Index=1,2) in record = 0000748
       748 2010-04-22 04:09:20.00  1.269378E-02  1.241350E+04  1.241351E+04  6.247011E+14
                     (063,099,35)  2.458421E-04  3.369673E-03  5.889174E-02  2.111918E+00
      WRT_HIS     - wrote history     fields (Index=1,1) in record = 0000749
       749 2010-04-22 04:09:40.00  1.269413E-02  1.241350E+04  1.241351E+04  6.247011E+14
                     (063,099,35)  2.458489E-04  3.369731E-03  5.889386E-02  2.111949E+00
      WRT_HIS     - wrote history     fields (Index=1,2) in record = 0000750
       750 2010-04-22 04:10:00.00  1.269430E-02  1.241350E+04  1.241351E+04  6.247011E+14
                     (063,099,35)  2.458558E-04  3.369788E-03  5.889597E-02  2.111981E+00
      WRT_HIS     - wrote history     fields (Index=1,1) in record = 0000751
       751 2010-04-22 04:10:20.00  1.269466E-02  1.241350E+04  1.241351E+04  6.247011E+14
                     (063,099,35)  2.458627E-04  3.369846E-03  5.889809E-02  2.112012E+00
      WRT_HIS     - wrote history     fields (Index=1,2) in record = 0000752
       752 2010-04-22 04:10:40.00  1.269483E-02  1.241350E+04  1.241351E+04  6.247011E+14
                     (063,099,35)  2.458696E-04  3.369903E-03  5.890020E-02  2.112043E+00
      WRT_HIS     - wrote history     fields (Index=1,1) in record = 0000753
       753 2010-04-22 04:11:00.00  1.269519E-02  1.241350E+04  1.241351E+04  6.247011E+14
                     (063,099,35)  2.458765E-04  3.369961E-03  5.890231E-02  2.112074E+00
      WRT_HIS     - wrote history     fields (Index=1,2) in record = 0000754
       754 2010-04-22 04:11:20.00  1.269537E-02  1.241350E+04  1.241351E+04  6.247011E+14
                     (063,099,35)  2.458834E-04  3.370019E-03  5.890443E-02  2.112106E+00
      WRT_HIS     - wrote history     fields (Index=1,1) in record = 0000755
       755 2010-04-22 04:11:40.00  1.269574E-02  1.241350E+04  1.241351E+04  6.247011E+14
                     (063,099,35)  2.458903E-04  3.370076E-03  5.890654E-02  2.112137E+00
      WRT_HIS     - wrote history     fields (Index=1,2) in record = 0000756
       756 2010-04-22 04:12:00.00  1.269592E-02  1.241350E+04  1.241351E+04  6.247011E+14
                     (063,099,35)  2.458972E-04  3.370134E-03  5.890866E-02  2.112168E+00
      WRT_HIS     - wrote history     fields (Index=1,1) in record = 0000757
       757 2010-04-22 04:12:20.00  1.269629E-02  1.241350E+04  1.241351E+04  6.247011E+14
                     (063,099,35)  2.459041E-04  3.370192E-03  5.891077E-02  2.112199E+00
      WRT_HIS     - wrote history     fields (Index=1,2) in record = 0000758
       758 2010-04-22 04:12:40.00  1.269647E-02  1.241350E+04  1.241351E+04  6.247011E+14
                     (063,099,35)  2.459110E-04  3.370249E-03  5.891288E-02  2.112231E+00
      WRT_HIS     - wrote history     fields (Index=1,1) in record = 0000759
       759 2010-04-22 04:13:00.00  1.269685E-02  1.241350E+04  1.241351E+04  6.247011E+14
                     (063,099,35)  2.459179E-04  3.370307E-03  5.891500E-02  2.112262E+00
      WRT_HIS     - wrote history     fields (Index=1,2) in record = 0000760
       760 2010-04-22 04:13:20.00  1.269704E-02  1.241350E+04  1.241351E+04  6.247011E+14
                     (063,099,35)  2.459248E-04  3.370364E-03  5.891711E-02  2.112293E+00
      WRT_HIS     - wrote history     fields (Index=1,1) in record = 0000761
       761 2010-04-22 04:13:40.00  1.269741E-02  1.241350E+04  1.241351E+04  6.247011E+14
                     (063,099,35)  2.459317E-04  3.370422E-03  5.891923E-02  2.112324E+00
      WRT_HIS     - wrote history     fields (Index=1,2) in record = 0000762
       762 2010-04-22 04:14:00.00  1.269761E-02  1.241350E+04  1.241351E+04  6.247011E+14
                     (063,099,35)  2.459386E-04  3.370480E-03  5.892134E-02  2.112356E+00
      WRT_HIS     - wrote history     fields (Index=1,1) in record = 0000763
       763 2010-04-22 04:14:20.00  1.269799E-02  1.241350E+04  1.241351E+04  6.247011E+14
                     (063,099,35)  2.459455E-04  3.370537E-03  5.892345E-02  2.112387E+00
      WRT_HIS     - wrote history     fields (Index=1,2) in record = 0000764
       764 2010-04-22 04:14:40.00  1.269818E-02  1.241350E+04  1.241351E+04  6.247011E+14
                     (063,099,35)  2.459524E-04  3.370595E-03  5.892557E-02  2.112418E+00
      WRT_HIS     - wrote history     fields (Index=1,1) in record = 0000765
       765 2010-04-22 04:15:00.00  1.269857E-02  1.241350E+04  1.241351E+04  6.247011E+14
                     (063,099,35)  2.459593E-04  3.370652E-03  5.892768E-02  2.112449E+00
      WRT_HIS     - wrote history     fields (Index=1,2) in record = 0000766
       766 2010-04-22 04:15:20.00  1.269877E-02  1.241350E+04  1.241351E+04  6.247011E+14
                     (063,099,35)  2.459662E-04  3.370710E-03  5.892980E-02  2.112481E+00
      WRT_HIS     - wrote history     fields (Index=1,1) in record = 0000767
       767 2010-04-22 04:15:40.00  1.269916E-02  1.241350E+04  1.241351E+04  6.247011E+14
                     (063,099,35)  2.459731E-04  3.370768E-03  5.893191E-02  2.112512E+00
      WRT_HIS     - wrote history     fields (Index=1,2) in record = 0000768
       768 2010-04-22 04:16:00.00  1.269936E-02  1.241350E+04  1.241351E+04  6.247011E+14
                     (063,099,35)  2.459800E-04  3.370825E-03  5.893402E-02  2.112543E+00
      WRT_HIS     - wrote history     fields (Index=1,1) in record = 0000769
       769 2010-04-22 04:16:20.00  1.269975E-02  1.241350E+04  1.241351E+04  6.247011E+14
                     (063,099,35)  2.459869E-04  3.370883E-03  5.893614E-02  2.112574E+00
      WRT_HIS     - wrote history     fields (Index=1,2) in record = 0000770
       770 2010-04-22 04:16:40.00  1.269996E-02  1.241350E+04  1.241351E+04  6.247011E+14
                     (063,099,35)  2.459938E-04  3.370940E-03  5.893825E-02  2.112606E+00
      WRT_HIS     - wrote history     fields (Index=1,1) in record = 0000771
       771 2010-04-22 04:17:00.00  1.270036E-02  1.241350E+04  1.241351E+04  6.247011E+14
                     (063,099,35)  2.460007E-04  3.370998E-03  5.894037E-02  2.112637E+00
      WRT_HIS     - wrote history     fields (Index=1,2) in record = 0000772
       772 2010-04-22 04:17:20.00  1.270057E-02  1.241350E+04  1.241351E+04  6.247011E+14
                     (063,099,35)  2.460076E-04  3.371056E-03  5.894248E-02  2.112668E+00
      WRT_HIS     - wrote history     fields (Index=1,1) in record = 0000773

===================================================================================
=   BAD TERMINATION OF ONE OF YOUR APPLICATION PROCESSES
=   PID 53548 RUNNING AT tlogin-0501.cluster
=   EXIT CODE: 9
=   CLEANING UP REMAINING PROCESSES
=   YOU CAN IGNORE THE BELOW CLEANUP MESSAGES
===================================================================================
   Intel(R) MPI Library troubleshooting guide:
      https://software.intel.com/node/561764
===================================================================================
